@<TRIPOS>MOLECULE
Analysis/pc_mapping/7bcea01794773fc317d8fb5a8ea7c275.pdb
 18 18 0 0 0
SMALL
GASTEIGER

@<TRIPOS>ATOM
      1  N         34.1150  -39.4260    6.4300 N.1    12  T0012      -0.1901
      2  N1        33.6030  -35.5630    4.3520 N.1    12  T0012      -0.1901
      3  N2        36.0880  -32.3800   10.2610 N.1    12  T0012      -0.1945
      4  N3        34.5190  -32.2890    6.1320 N.1    12  T0012      -0.1945
      5  N4        35.4700  -39.5080   10.0240 N.1    12  T0012      -0.1945
      6  N5        36.5340  -35.7410   12.0710 N.1    12  T0012      -0.1945
      7  C         34.7770  -36.2090    7.5540 C.2    12  T0012       0.0149
      8  C1        35.1150  -35.0050    8.2080 C.2    12  T0012       0.0049
      9  C2        35.2770  -36.2400    8.8740 C.2    12  T0012       0.0049
     10  C3        34.3130  -36.8600    6.4600 C.2    12  T0012       0.1359
     11  C4        35.2110  -33.6550    8.2030 C.3    12  T0012       0.2036
     12  C5        35.6440  -36.9400    9.9740 C.3    12  T0012       0.2036
     13  C6        34.2040  -38.2770    6.4460 C.1    12  T0012       0.1108
     14  C7        33.9210  -36.1420    5.2970 C.1    12  T0012       0.1108
     15  C8        35.6950  -32.9520    9.3400 C.1    12  T0012       0.0921
     16  C9        34.8290  -32.9010    7.0590 C.1    12  T0012       0.0921
     17 C10        35.5480  -38.3580   10.0000 C.1    12  T0012       0.0921
     18 C11        36.1360  -36.2770   11.1310 C.1    12  T0012       0.0921
@<TRIPOS>BOND
     1     2    14    3
     2    14    10    1
     3     4    16    3
     4     1    13    3
     5    13    10    1
     6    10     7    2
     7    16    11    1
     8     7     8    1
     9     7     9    1
    10    11     8    1
    11    11    15    1
    12     8     9    2
    13     9    12    1
    14    15     3    3
    15    12    17    1
    16    12    18    1
    17    17     5    3
    18    18     6    3
