@<TRIPOS>MOLECULE
Analysis/pc_mapping/8f9f22e615cea1141c61fed1edc78168.pdb
 127 139 0 0 0
SMALL
GASTEIGER

@<TRIPOS>ATOM
      1  C         12.8820   25.9050    6.5510 C.ar    0  T010       -0.0178
      2  C1        12.6430   26.1950    7.8990 C.ar    0  T010       -0.0523
      3  C2        13.6380   26.0730    8.8520 C.ar    0  T010       -0.0394
      4  C3        14.9150   25.6370    8.4940 C.ar    0  T010        0.0388
      5  C4        15.1650   25.3330    7.1540 C.ar    0  T010       -0.0394
      6  C5        14.1670   25.4750    6.2040 C.ar    0  T010       -0.0523
      7  N         15.9280   25.5040    9.4640 N.pl3   0  T010       -0.2692
      8  C6        16.4770   24.2320    9.7420 C.ar    0  T010        0.0388
      9  C7        17.5670   24.1030   10.6020 C.ar    0  T010       -0.0397
     10  C8        18.1180   22.8590   10.8540 C.ar    0  T010       -0.0553
     11  C9        17.5970   21.7010   10.2750 C.ar    0  T010       -0.0281
     12 C10        16.4950   21.8370    9.4330 C.ar    0  T010       -0.0553
     13 C11        15.9470   23.0810    9.1600 C.ar    0  T010       -0.0397
     14 C12        18.1670   20.3300   10.6410 C.3     0  T010        0.0716
     15 C13        17.4130   19.1700    9.9920 C.ar    0  T010       -0.0205
     16 C14        17.3100   18.8490    8.6510 C.ar    0  T010       -0.0565
     17 C15        16.5750   17.7280    8.2790 C.ar    0  T010       -0.0614
     18 C16        15.9560   16.9330    9.2430 C.ar    0  T010       -0.0612
     19 C17        16.0630   17.2490   10.5920 C.ar    0  T010       -0.0537
     20 C18        16.7960   18.3710   10.9620 C.ar    0  T010       -0.0129
     21 C19        17.0790   18.9330   12.2800 C.ar    0  T010       -0.0129
     22 C20        16.6850   18.5190   13.5470 C.ar    0  T010       -0.0537
     23 C21        17.1050   19.2500   14.6530 C.ar    0  T010       -0.0612
     24 C22        17.9010   20.3820   14.4910 C.ar    0  T010       -0.0614
     25 C23        18.2900   20.8000   13.2210 C.ar    0  T010       -0.0565
     26 C24        17.8810   20.0690   12.1210 C.ar    0  T010       -0.0205
     27 C25        19.6480   20.2040   10.2810 C.ar    0  T010       -0.0281
     28 C26        20.3670   19.0640   10.6440 C.ar    0  T010       -0.0553
     29 C27        21.7260   18.9610   10.4030 C.ar    0  T010       -0.0397
     30 C28        22.4130   20.0010    9.7760 C.ar    0  T010        0.0388
     31 C29        21.7040   21.1450    9.4140 C.ar    0  T010       -0.0397
     32 C30        20.3460   21.2450    9.6740 C.ar    0  T010       -0.0553
     33  N1        23.7960   19.8890    9.5070 N.pl3   0  T010       -0.2692
     34 C31        24.4630   18.6740    9.7610 C.ar    0  T010        0.0388
     35 C32        25.5710   18.6310   10.6110 C.ar    0  T010       -0.0394
     36 C33        26.2270   17.4360   10.8520 C.ar    0  T010       -0.0523
     37 C34        25.7980   16.2380   10.2710 C.ar    0  T010       -0.0178
     38 C35        24.6820   16.2930    9.4300 C.ar    0  T010       -0.0523
     39 C36        24.0300   17.4860    9.1710 C.ar    0  T010       -0.0394
     40 C37        26.4970   14.9660   10.5350 C.ar    0  T010       -0.0179
     41 C38        27.8430   14.9490   10.9140 C.ar    0  T010       -0.0540
     42 C39        28.5010   13.7520   11.1650 C.ar    0  T010       -0.0612
     43 C40        27.8270   12.5430   11.0380 C.ar    0  T010       -0.0617
     44 C41        26.4890   12.5440   10.6620 C.ar    0  T010       -0.0612
     45 C42        25.8320   13.7400   10.4150 C.ar    0  T010       -0.0540
     46 C43        24.4980   20.9930    8.9830 C.ar    0  T010        0.0388
     47 C44        24.6720   22.1530    9.7430 C.ar    0  T010       -0.0394
     48 C45        25.3440   23.2420    9.2200 C.ar    0  T010       -0.0523
     49 C46        25.8840   23.2190    7.9310 C.ar    0  T010       -0.0178
     50 C47        25.7130   22.0480    7.1830 C.ar    0  T010       -0.0523
     51 C48        25.0270   20.9590    7.6910 C.ar    0  T010       -0.0394
     52 C49        26.6040   24.3820    7.3790 C.ar    0  T010       -0.0179
     53 C50        26.3550   25.6740    7.8550 C.ar    0  T010       -0.0540
     54 C51        27.0320   26.7700    7.3380 C.ar    0  T010       -0.0612
     55 C52        27.9740   26.5980    6.3290 C.ar    0  T010       -0.0617
     56 C53        28.2300   25.3210    5.8440 C.ar    0  T010       -0.0612
     57 C54        27.5540   24.2260    6.3640 C.ar    0  T010       -0.0540
     58 C55        16.4030   26.6350   10.1610 C.ar    0  T010        0.0388
     59 C56        16.4260   26.6580   11.5570 C.ar    0  T010       -0.0394
     60 C57        16.8940   27.7720   12.2330 C.ar    0  T010       -0.0523
     61 C58        17.3680   28.8960   11.5500 C.ar    0  T010       -0.0178
     62 C59        17.3440   28.8580   10.1530 C.ar    0  T010       -0.0523
     63 C60        16.8660   27.7550    9.4670 C.ar    0  T010       -0.0394
     64 C61        17.8750   30.0780   12.2760 C.ar    0  T010       -0.0179
     65 C62        17.5360   31.3730   11.8690 C.ar    0  T010       -0.0540
     66 C63        18.0120   32.4850   12.5500 C.ar    0  T010       -0.0612
     67 C64        18.8390   32.3270   13.6570 C.ar    0  T010       -0.0617
     68 C65        19.1840   31.0470   14.0740 C.ar    0  T010       -0.0612
     69 C66        18.7070   29.9360   13.3910 C.ar    0  T010       -0.0540
     70 C67        11.8210   26.0450    5.5360 C.ar    0  T010       -0.0179
     71 C68        12.1020   26.5570    4.2650 C.ar    0  T010       -0.0540
     72 C69        11.1050   26.6860    3.3090 C.ar    0  T010       -0.0612
     73 C70         9.7990   26.3080    3.6020 C.ar    0  T010       -0.0617
     74 C71         9.5030   25.7990    4.8620 C.ar    0  T010       -0.0612
     75 C72        10.5020   25.6680    5.8150 C.ar    0  T010       -0.0540
     76  H         11.6700   26.5620    8.2000 H       0  T010        0.0624
     77  H1        13.4310   26.3240    9.8840 H       0  T010        0.0636
     78  H2        16.1420   24.9780    6.8600 H       0  T010        0.0636
     79  H3        14.3800   25.2070    5.1770 H       0  T010        0.0624
     80  H4        17.9890   24.9850   11.0650 H       0  T010        0.0636
     81  H5        18.9730   22.7900   11.5140 H       0  T010        0.0621
     82  H6        16.0640   20.9620    8.9670 H       0  T010        0.0621
     83  H7        15.1020   23.1620    8.4890 H       0  T010        0.0636
     84  H8        17.7930   19.4570    7.8960 H       0  T010        0.0621
     85  H9        16.4850   17.4670    7.2310 H       0  T010        0.0618
     86 H10        15.3900   16.0630    8.9360 H       0  T010        0.0618
     87 H11        15.5850   16.6280   11.3380 H       0  T010        0.0624
     88 H12        16.0640   17.6410   13.6770 H       0  T010        0.0624
     89 H13        16.8080   18.9410   15.6480 H       0  T010        0.0618
     90 H14        18.2180   20.9440   15.3610 H       0  T010        0.0618
     91 H15        18.9060   21.6820   13.1030 H       0  T010        0.0621
     92 H16        19.8570   18.2380   11.1190 H       0  T010        0.0621
     93 H17        22.2610   18.0670   10.6950 H       0  T010        0.0636
     94 H18        22.2210   21.9610    8.9260 H       0  T010        0.0636
     95 H19        19.8220   22.1440    9.3810 H       0  T010        0.0621
     96 H20        25.9110   19.5400   11.0900 H       0  T010        0.0636
     97 H21        27.0660   17.4270   11.5350 H       0  T010        0.0624
     98 H22        24.3410   15.3910    8.9380 H       0  T010        0.0624
     99 H23        23.1800   17.5030    8.5010 H       0  T010        0.0636
    100 H24        28.3870   15.8820   10.9900 H       0  T010        0.0624
    101 H25        29.5460   13.7640   11.4490 H       0  T010        0.0618
    102 H26        28.3400   11.6100   11.2310 H       0  T010        0.0618
    103 H27        25.9520   11.6070   10.5680 H       0  T010        0.0618
    104 H28        24.7830   13.7280   10.1490 H       0  T010        0.0624
    105 H29        24.2820   22.1900   10.7510 H       0  T010        0.0636
    106 H30        25.4860   24.1190    9.8400 H       0  T010        0.0624
    107 H31        26.0880   22.0040    6.1690 H       0  T010        0.0624
    108 H32        24.8900   20.0750    7.0830 H       0  T010        0.0636
    109 H33        25.6040   25.8230    8.6210 H       0  T010        0.0624
    110 H34        26.8170   27.7610    7.7170 H       0  T010        0.0618
    111 H35        28.5020   27.4530    5.9260 H       0  T010        0.0618
    112 H36        28.9680   25.1750    5.0640 H       0  T010        0.0618
    113 H37        27.7840   23.2340    5.9970 H       0  T010        0.0624
    114 H38        16.0670   25.8020   12.1100 H       0  T010        0.0636
    115 H39        16.8820   27.7710   13.3150 H       0  T010        0.0624
    116 H40        17.7180   29.7040    9.5890 H       0  T010        0.0624
    117 H41        16.8600   27.7510    8.3860 H       0  T010        0.0636
    118 H42        16.8730   31.5100   11.0240 H       0  T010        0.0624
    119 H43        17.7290   33.4760   12.2220 H       0  T010        0.0618
    120 H44        19.2090   33.1930   14.1900 H       0  T010        0.0618
    121 H45        19.8320   30.9110   14.9300 H       0  T010        0.0618
    122 H46        19.0050   28.9450   13.7110 H       0  T010        0.0624
    123 H47        13.1090   26.8800    4.0330 H       0  T010        0.0624
    124 H48        11.3460   27.0920    2.3340 H       0  T010        0.0618
    125 H49         9.0210   26.4090    2.8570 H       0  T010        0.0618
    126 H50         8.4920   25.4930    5.0990 H       0  T010        0.0618
    127 H51        10.2640   25.2430    6.7830 H       0  T010        0.0624
@<TRIPOS>BOND
     1   124    72    1
     2   125    73    1
     3    72    73   ar
     4    72    71   ar
     5    73    74   ar
     6   123    71    1
     7    71    70   ar
     8    74   126    1
     9    74    75   ar
    10   112    56    1
    11    79     6    1
    12    70    75   ar
    13    70     1    1
    14    75   127    1
    15    56    55   ar
    16    56    57   ar
    17   111    55    1
    18   113    57    1
    19   107    50    1
    20     6     1   ar
    21     6     5   ar
    22    55    54   ar
    23    57    52   ar
    24     1     2   ar
    25    78     5    1
    26   108    51    1
    27     5     4   ar
    28    50    51   ar
    29    50    49   ar
    30    85    17    1
    31    54   110    1
    32    54    53   ar
    33    52    53   ar
    34    52    49    1
    35    51    46   ar
    36    53   109    1
    37    84    16    1
    38     2    76    1
    39     2     3   ar
    40    49    48   ar
    41    17    16   ar
    42    17    18   ar
    43   117    63    1
    44    83    13    1
    45     4     3   ar
    46     4     7    1
    47    99    39    1
    48    16    15   ar
    49     3    77    1
    50    94    31    1
    51    86    18    1
    52    98    38    1
    53    82    12    1
    54    46    33    1
    55    46    47   ar
    56    13    12   ar
    57    13     8   ar
    58    39    38   ar
    59    39    34   ar
    60    48    47   ar
    61    48   106    1
    62    18    19   ar
    63    95    32    1
    64    31    32   ar
    65    31    30   ar
    66    38    37   ar
    67    12    11   ar
    68     7     8    1
    69     7    58    1
    70    63    62   ar
    71    63    58   ar
    72    33    34    1
    73    33    30    1
    74   116    62    1
    75    32    27   ar
    76     8     9   ar
    77    47   105    1
    78    34    35   ar
    79    30    29   ar
    80    15    14    1
    81    15    20   ar
    82   104    45    1
    83    62    61   ar
    84    58    59   ar
    85    37    40    1
    86    37    36   ar
    87    11    14    1
    88    11    10   ar
    89    27    14    1
    90    27    28   ar
    91    29    28   ar
    92    29    93    1
    93    45    40   ar
    94    45    44   ar
    95    40    41   ar
    96   103    44    1
    97    19    20   ar
    98    19    87    1
    99     9    10   ar
   100     9    80    1
   101    35    36   ar
   102    35    96    1
   103    14    26    1
   104    28    92    1
   105    44    43   ar
   106    36    97    1
   107    10    81    1
   108    41   100    1
   109    41    42   ar
   110    20    21    1
   111   118    65    1
   112    43    42   ar
   113    43   102    1
   114    42   101    1
   115    61    60   ar
   116    61    64    1
   117    59   114    1
   118    59    60   ar
   119    65    64   ar
   120    65    66   ar
   121    26    21   ar
   122    26    25   ar
   123   119    66    1
   124    60   115    1
   125    64    69   ar
   126    21    22   ar
   127    66    67   ar
   128    91    25    1
   129    25    24   ar
   130    69   122    1
   131    69    68   ar
   132    22    88    1
   133    22    23   ar
   134    67    68   ar
   135    67   120    1
   136    68   121    1
   137    24    23   ar
   138    24    90    1
   139    23    89    1
