@<TRIPOS>MOLECULE
Analysis/pc_mapping/7b043a1428ff586ba119947b48219969.pdb
 72 77 0 0 0
SMALL
GASTEIGER

@<TRIPOS>ATOM
      1  C        -50.4800  -51.4660    9.3100 C.ar    0  T000       -0.0487
      2  C1       -49.9390  -51.7680   10.5600 C.ar    0  T000       -0.0587
      3  C2       -49.2110  -50.8130   11.2570 C.ar    0  T000       -0.0597
      4  C3       -49.0210  -49.5430   10.7310 C.ar    0  T000       -0.0400
      5  C4       -49.5530  -49.2270    9.4810 C.ar    0  T000        0.0390
      6  C5       -50.2750  -50.1950    8.7820 C.ar    0  T000       -0.0371
      7  C6       -47.0110  -48.1460    8.3420 C.ar    0  T000       -0.0400
      8  C7       -45.7360  -47.6060    8.2710 C.ar    0  T000       -0.0600
      9  C8       -45.4970  -46.2990    8.6830 C.ar    0  T000       -0.0616
     10  C9       -46.5520  -45.5400    9.1760 C.ar    0  T000       -0.0600
     11 C10       -47.8280  -46.0780    9.2660 C.ar    0  T000       -0.0400
     12 C11       -48.0710  -47.3880    8.8470 C.ar    0  T000        0.0388
     13 C12       -52.8320  -46.6660    8.6030 C.ar    0  T000       -0.0523
     14 C13       -51.7390  -47.3830    9.0560 C.ar    0  T000       -0.0394
     15 C14       -50.4820  -47.2050    8.4750 C.ar    0  T000        0.0388
     16 C15       -50.3560  -46.2850    7.4300 C.ar    0  T000       -0.0394
     17 C16       -51.4520  -45.5630    6.9930 C.ar    0  T000       -0.0523
     18 C17       -52.7190  -45.7350    7.5640 C.ar    0  T000       -0.0178
     19 C18       -54.5580  -45.3140    5.9180 C.ar    0  T000       -0.0523
     20 C19       -53.8840  -44.9660    7.0930 C.ar    0  T000       -0.0178
     21 C20       -54.3620  -43.8600    7.8030 C.ar    0  T000       -0.0523
     22 C21       -55.4620  -43.1420    7.3710 C.ar    0  T000       -0.0394
     23 C22       -56.1230  -43.4950    6.1930 C.ar    0  T000        0.0388
     24 C23       -55.6510  -44.5940    5.4690 C.ar    0  T000       -0.0394
     25 C24       -59.8700  -45.1670    4.6770 C.ar    0  T000       -0.0487
     26 C25       -58.9060  -44.5170    5.4410 C.ar    0  T000       -0.0371
     27 C26       -58.2260  -43.4010    4.9540 C.ar    0  T000        0.0390
     28 C27       -58.5280  -42.9220    3.6770 C.ar    0  T000       -0.0400
     29 C28       -59.5010  -43.5540    2.9200 C.ar    0  T000       -0.0597
     30 C29       -60.1680  -44.6710    3.4080 C.ar    0  T000       -0.0587
     31 C30       -57.3860  -41.4050    6.0950 C.ar    0  T000        0.0388
     32 C31       -58.6430  -40.8810    6.4020 C.ar    0  T000       -0.0400
     33 C32       -58.7790  -39.5420    6.7410 C.ar    0  T000       -0.0600
     34 C33       -57.6670  -38.7090    6.7950 C.ar    0  T000       -0.0616
     35 C34       -56.4130  -39.2310    6.4960 C.ar    0  T000       -0.0600
     36 C35       -56.2700  -40.5640    6.1410 C.ar    0  T000       -0.0400
     37  N        -57.2420  -42.7640    5.7440 N.pl3   0  T000       -0.2692
     38  N1       -49.3680  -47.9390    8.9300 N.pl3   0  T000       -0.2692
     39 C36       -60.5660  -46.3900    5.2150 C.3     0  T000       -0.0397
     40 C37       -51.2350  -52.5040    8.5240 C.3     0  T000       -0.0397
     41  H        -50.0900  -52.7520   10.9870 H       0  T000        0.0620
     42  H1       -48.8020  -51.0520   12.2310 H       0  T000        0.0618
     43  H2       -48.4660  -48.7970   11.2820 H       0  T000        0.0636
     44  H3       -50.6850  -49.9450    7.8120 H       0  T000        0.0639
     45  H4       -47.1930  -49.1600    8.0110 H       0  T000        0.0636
     46  H5       -44.9260  -48.2070    7.8770 H       0  T000        0.0618
     47  H6       -44.5020  -45.8790    8.6200 H       0  T000        0.0618
     48  H7       -46.3800  -44.5230    9.5070 H       0  T000        0.0618
     49  H8       -48.6420  -45.4850    9.6610 H       0  T000        0.0636
     50  H9       -53.7870  -46.8030    9.0920 H       0  T000        0.0624
     51 H10       -51.8530  -48.0820    9.8740 H       0  T000        0.0636
     52 H11       -49.3930  -46.1460    6.9580 H       0  T000        0.0636
     53 H12       -51.3300  -44.8780    6.1630 H       0  T000        0.0624
     54 H13       -54.1970  -46.1420    5.3210 H       0  T000        0.0624
     55 H14       -53.8880  -43.5810    8.7370 H       0  T000        0.0624
     56 H15       -55.8230  -42.3030    7.9510 H       0  T000        0.0636
     57 H16       -56.1420  -44.8740    4.5470 H       0  T000        0.0636
     58 H17       -58.6750  -44.8790    6.4350 H       0  T000        0.0639
     59 H18       -58.0050  -42.0560    3.2920 H       0  T000        0.0636
     60 H19       -59.7350  -43.1760    1.9310 H       0  T000        0.0618
     61 H20       -60.9240  -45.1580    2.8040 H       0  T000        0.0620
     62 H21       -59.5100  -41.5270    6.3710 H       0  T000        0.0636
     63 H22       -59.7610  -39.1520    6.9790 H       0  T000        0.0618
     64 H23       -57.7750  -37.6680    7.0670 H       0  T000        0.0618
     65 H24       -55.5390  -38.5940    6.5260 H       0  T000        0.0618
     66 H25       -55.2950  -40.9630    5.8980 H       0  T000        0.0636
     67 H26       -59.8810  -47.2360    5.2860 H       0  T000        0.0278
     68 H27       -60.9630  -46.2040    6.2170 H       0  T000        0.0278
     69 H28       -61.4050  -46.6810    4.5820 H       0  T000        0.0278
     70 H29       -51.9480  -53.0370    9.1540 H       0  T000        0.0278
     71 H30       -51.7810  -52.0560    7.6930 H       0  T000        0.0278
     72 H31       -50.5530  -53.2490    8.1030 H       0  T000        0.0278
@<TRIPOS>BOND
     1    60    29    1
     2    61    30    1
     3    29    30   ar
     4    29    28   ar
     5    59    28    1
     6    30    25   ar
     7    28    27   ar
     8    57    24    1
     9    69    39    1
    10    25    39    1
    11    25    26   ar
    12    27    26   ar
    13    27    37    1
    14    39    67    1
    15    39    68    1
    16    54    19    1
    17    26    58    1
    18    24    19   ar
    19    24    23   ar
    20    37    31    1
    21    37    23    1
    22    66    36    1
    23    19    20   ar
    24    31    36   ar
    25    31    32   ar
    26    36    35   ar
    27    53    17    1
    28    23    22   ar
    29    62    32    1
    30    32    33   ar
    31    35    65    1
    32    35    34   ar
    33    33    34   ar
    34    33    63    1
    35    34    64    1
    36    52    16    1
    37    17    16   ar
    38    17    18   ar
    39    20    18    1
    40    20    21   ar
    41    22    21   ar
    42    22    56    1
    43    16    15   ar
    44    18    13   ar
    45    71    40    1
    46    21    55    1
    47    44     6    1
    48    46     8    1
    49    45     7    1
    50    72    40    1
    51     8     7   ar
    52     8     9   ar
    53     7    12   ar
    54    15    38    1
    55    15    14   ar
    56    40    70    1
    57    40     1    1
    58    13    14   ar
    59    13    50    1
    60    47     9    1
    61     9    10   ar
    62     6     1   ar
    63     6     5   ar
    64    12    38    1
    65    12    11   ar
    66    38     5    1
    67    14    51    1
    68    10    11   ar
    69    10    48    1
    70    11    49    1
    71     1     2   ar
    72     5     4   ar
    73     2    41    1
    74     2     3   ar
    75     4     3   ar
    76     4    43    1
    77     3    42    1
