@<TRIPOS>MOLECULE
Analysis/pc_mapping/ac85c387eec36b98aaab7138b62a8b88.pdb
 20 20 0 0 0
SMALL
GASTEIGER

@<TRIPOS>ATOM
      1  C        -35.1630   -3.7380    9.3870 C.ar   21  T0121       0.0652
      2  C1       -34.2890   -2.6820    8.9410 C.ar   21  T0121       0.1674
      3  C2       -33.0370   -2.9120    8.4860 C.ar   21  T0121       0.1674
      4  C3       -32.4660   -4.2330    8.4070 C.ar   21  T0121       0.0652
      5  C4       -33.3410   -5.2880    8.8520 C.ar   21  T0121       0.1674
      6  C5       -34.5930   -5.0580    9.3060 C.ar   21  T0121       0.1674
      7  F        -35.3240   -6.0940    9.6930 F      21  T0121      -0.2020
      8  F1       -32.9030   -6.5390    8.8150 F      21  T0121      -0.2020
      9  F2       -32.3060   -1.8770    8.0980 F      21  T0121      -0.2020
     10  F3       -34.7270   -1.4310    8.9780 F      21  T0121      -0.2020
     11  C6       -36.4420   -3.5030    9.8510 C.3    21  T0121       0.2083
     12  C7       -37.0260   -2.2070    9.9410 C.1    21  T0121       0.0923
     13  C8       -37.3230   -4.5280   10.2970 C.1    21  T0121       0.0923
     14  C9       -31.1870   -4.4680    7.9420 C.3    21  T0121       0.2083
     15 C10       -30.3060   -3.4420    7.4980 C.1    21  T0121       0.0923
     16 C11       -30.6030   -5.7640    7.8550 C.1    21  T0121       0.0923
     17  N        -37.5760   -1.1980   10.0460 N.1    21  T0121      -0.1945
     18  N1       -38.1010   -5.2920   10.6740 N.1    21  T0121      -0.1945
     19  N2       -30.0530   -6.7710    7.7500 N.1    21  T0121      -0.1945
     20  N3       -29.5280   -2.6780    7.1210 N.1    21  T0121      -0.1945
@<TRIPOS>BOND
     1    20    15    3
     2    15    14    1
     3    19    16    3
     4    16    14    1
     5    14     4    1
     6     9     3    1
     7     4     3   ar
     8     4     5   ar
     9     3     2   ar
    10     8     5    1
    11     5     6   ar
    12     2    10    1
    13     2     1   ar
    14     6     1   ar
    15     6     7    1
    16     1    11    1
    17    11    12    1
    18    11    13    1
    19    12    17    3
    20    13    18    3
