@<TRIPOS>MOLECULE
Analysis/pc_mapping/5dee5b9496ddfc5006490595142aea3a.pdb
 109 117 0 0 0
SMALL
GASTEIGER

@<TRIPOS>ATOM
      1  C         46.5590   58.1570    8.5870 C.ar    0  T000       -0.0371
      2  C1        46.7260   59.4450    9.0860 C.ar    0  T000       -0.0487
      3  C2        47.3520   60.4000    8.2830 C.ar    0  T000       -0.0587
      4  C3        47.8070   60.0570    7.0160 C.ar    0  T000       -0.0597
      5  C4        47.6570   58.7680    6.5320 C.ar    0  T000       -0.0400
      6  C5        47.0240   57.8030    7.3190 C.ar    0  T000        0.0390
      7  C6        47.5650   55.0280    5.0220 C.ar    0  T000       -0.0400
      8  C7        47.8810   55.8580    6.1000 C.ar    0  T000        0.0388
      9  C8        49.2260   56.0660    6.4230 C.ar    0  T000       -0.0400
     10  C9        50.2260   55.4490    5.6870 C.ar    0  T000       -0.0600
     11 C10        49.9090   54.6280    4.6090 C.ar    0  T000       -0.0616
     12 C11        48.5730   54.4260    4.2810 C.ar    0  T000       -0.0600
     13 C12        43.2810   54.3900    7.6730 C.ar    0  T000        0.0389
     14 C13        43.2680   55.7670    7.4410 C.ar    0  T000       -0.0382
     15 C14        44.4410   56.4550    7.1870 C.ar    0  T000       -0.0382
     16 C15        45.6630   55.7830    7.1190 C.ar    0  T000        0.0389
     17 C16        45.6740   54.4030    7.3290 C.ar    0  T000       -0.0382
     18 C17        44.5070   53.7200    7.6210 C.ar    0  T000       -0.0382
     19 C18        40.9150   55.0330   11.2070 C.ar    0  T000       -0.0382
     20 C19        39.5300   55.0250   11.0400 C.ar    0  T000        0.0389
     21 C20        39.0100   54.5640    9.8290 C.ar    0  T000       -0.0382
     22 C21        39.8470   54.1440    8.8110 C.ar    0  T000       -0.0382
     23 C22        41.2340   54.1370    8.9850 C.ar    0  T000        0.0389
     24 C23        41.7530   54.5790   10.2050 C.ar    0  T000       -0.0382
     25 C24        40.6430   50.3980    7.0500 C.ar    0  T000       -0.0382
     26 C25        40.9820   51.5230    7.7810 C.ar    0  T000       -0.0382
     27 C26        41.7520   52.5400    7.2120 C.ar    0  T000        0.0389
     28 C27        42.1850   52.3880    5.8930 C.ar    0  T000       -0.0382
     29 C28        41.8760   51.2460    5.1740 C.ar    0  T000       -0.0382
     30 C29        41.0940   50.2370    5.7390 C.ar    0  T000        0.0389
     31 C30        44.0320   47.3380    4.7480 C.ar    0  T000       -0.0600
     32 C31        43.8400   46.5460    3.6200 C.ar    0  T000       -0.0616
     33 C32        42.6200   46.6000    2.9550 C.ar    0  T000       -0.0600
     34 C33        41.6030   47.4260    3.4100 C.ar    0  T000       -0.0400
     35 C34        41.7970   48.2300    4.5360 C.ar    0  T000        0.0388
     36 C35        43.0260   48.1790    5.1990 C.ar    0  T000       -0.0400
     37 C36        38.8890   47.5200    5.0680 C.ar    0  T000       -0.0400
     38 C37        39.4150   48.7720    4.7420 C.ar    0  T000        0.0390
     39 C38        38.5840   49.7230    4.1470 C.ar    0  T000       -0.0371
     40 C39        37.2510   49.4470    3.8650 C.ar    0  T000       -0.0487
     41 C40        36.7380   48.1960    4.2080 C.ar    0  T000       -0.0587
     42 C41        37.5540   47.2450    4.8080 C.ar    0  T000       -0.0597
     43 C42        35.0910   57.4370   11.0900 C.ar    0  T000       -0.0587
     44 C43        35.0740   56.3210   11.9200 C.ar    0  T000       -0.0597
     45 C44        36.2490   55.6590   12.2410 C.ar    0  T000       -0.0400
     46 C45        37.4660   56.1260   11.7410 C.ar    0  T000        0.0390
     47 C46        37.4760   57.2550   10.9200 C.ar    0  T000       -0.0371
     48 C47        36.2980   57.9110   10.5780 C.ar    0  T000       -0.0487
     49 C48        39.9080   54.2420   13.7770 C.ar    0  T000       -0.0400
     50 C49        40.2610   54.0520   15.1050 C.ar    0  T000       -0.0600
     51 C50        39.7370   54.8690   16.1010 C.ar    0  T000       -0.0616
     52 C51        38.8590   55.8870   15.7480 C.ar    0  T000       -0.0600
     53 C52        38.5130   56.0950   14.4210 C.ar    0  T000       -0.0400
     54 C53        39.0330   55.2710   13.4200 C.ar    0  T000        0.0388
     55  N         38.6740   55.4720   12.0710 N.pl3   0  T000       -0.2692
     56  N1        40.7680   49.0750    5.0020 N.pl3   0  T000       -0.2692
     57  N2        42.0870   53.6920    7.9540 N.pl3   0  T000       -0.2692
     58  N3        46.8600   56.4830    6.8450 N.pl3   0  T000       -0.2692
     59 C54        36.3860   50.4780    3.1900 C.3     0  T000       -0.0397
     60 C55        46.2480   59.7900   10.4710 C.3     0  T000       -0.0397
     61 C56        36.3320   59.1050    9.6600 C.3     0  T000       -0.0397
     62  H         46.0620   57.4090    9.1920 H       0  T000        0.0639
     63  H1        47.4810   61.4100    8.6520 H       0  T000        0.0620
     64  H2        48.2960   60.8020    6.4000 H       0  T000        0.0618
     65  H3        48.0200   58.5040    5.5490 H       0  T000        0.0636
     66  H4        46.5290   54.8590    4.7680 H       0  T000        0.0636
     67  H5        49.4780   56.7120    7.2530 H       0  T000        0.0636
     68  H6        51.2620   55.6230    5.9500 H       0  T000        0.0618
     69  H7        50.6930   54.1550    4.0330 H       0  T000        0.0618
     70  H8        48.3110   53.7850    3.4500 H       0  T000        0.0618
     71  H9        42.3290   56.3050    7.4790 H       0  T000        0.0637
     72 H10        44.4130   57.5230    7.0210 H       0  T000        0.0637
     73 H11        46.6130   53.8660    7.2840 H       0  T000        0.0637
     74 H12        44.5380   52.6530    7.7930 H       0  T000        0.0637
     75 H13        41.3350   55.3810   12.1420 H       0  T000        0.0637
     76 H14        37.9370   54.5550    9.6790 H       0  T000        0.0637
     77 H15        39.4270   53.8000    7.8760 H       0  T000        0.0637
     78 H16        42.8230   54.5830   10.3560 H       0  T000        0.0637
     79 H17        40.0410   49.6230    7.5030 H       0  T000        0.0637
     80 H18        40.6330   51.6260    8.8000 H       0  T000        0.0637
     81 H19        42.7850   53.1640    5.4380 H       0  T000        0.0637
     82 H20        42.2280   51.1400    4.1560 H       0  T000        0.0637
     83 H21        44.9790   47.3130    5.2730 H       0  T000        0.0618
     84 H22        44.6290   45.8960    3.2660 H       0  T000        0.0618
     85 H23        42.4510   45.9840    2.0800 H       0  T000        0.0618
     86 H24        40.6530   47.4550    2.8930 H       0  T000        0.0636
     87 H25        43.1860   48.8000    6.0700 H       0  T000        0.0636
     88 H26        39.5240   46.7740    5.5250 H       0  T000        0.0636
     89 H27        38.9930   50.6960    3.9010 H       0  T000        0.0639
     90 H28        35.6980   47.9660    4.0070 H       0  T000        0.0620
     91 H29        37.1520   46.2740    5.0670 H       0  T000        0.0618
     92 H30        34.1650   57.9430   10.8440 H       0  T000        0.0620
     93 H31        34.1330   55.9560   12.3120 H       0  T000        0.0618
     94 H32        36.2310   54.7870   12.8800 H       0  T000        0.0636
     95 H33        38.4230   57.6220   10.5440 H       0  T000        0.0639
     96 H34        40.3100   53.5950   13.0090 H       0  T000        0.0636
     97 H35        40.9400   53.2480   15.3640 H       0  T000        0.0618
     98 H36        40.0100   54.7140   17.1370 H       0  T000        0.0618
     99 H37        38.4470   56.5360   16.5120 H       0  T000        0.0618
    100 H38        37.8360   56.8940   14.1530 H       0  T000        0.0636
    101 H39        36.7510   51.4880    3.3790 H       0  T000        0.0278
    102 H40        35.3530   50.4180    3.5380 H       0  T000        0.0278
    103 H41        36.3750   50.3300    2.1060 H       0  T000        0.0278
    104 H42        45.3710   59.1930   10.7410 H       0  T000        0.0278
    105 H43        47.0200   59.5960   11.2180 H       0  T000        0.0278
    106 H44        45.9600   60.8400   10.5430 H       0  T000        0.0278
    107 H45        35.8510   59.9690   10.1280 H       0  T000        0.0278
    108 H46        37.3550   59.3920    9.4190 H       0  T000        0.0278
    109 H47        35.8040   58.9040    8.7270 H       0  T000        0.0278
@<TRIPOS>BOND
     1    85    33    1
     2   103    59    1
     3    86    34    1
     4    33    34   ar
     5    33    32   ar
     6    59   101    1
     7    59   102    1
     8    59    40    1
     9    84    32    1
    10    34    35   ar
    11    70    12    1
    12    32    31   ar
    13    40    39   ar
    14    40    41   ar
    15    89    39    1
    16    90    41    1
    17    69    11    1
    18    39    38   ar
    19    82    29    1
    20    41    42   ar
    21    12    11   ar
    22    12     7   ar
    23    35    56    1
    24    35    36   ar
    25    11    10   ar
    26    38    56    1
    27    38    37   ar
    28    31    36   ar
    29    31    83    1
    30    66     7    1
    31    42    91    1
    32    42    37   ar
    33    56    30    1
    34     7     8   ar
    35    37    88    1
    36    29    30   ar
    37    29    28   ar
    38    36    87    1
    39    81    28    1
    40    65     5    1
    41    10    68    1
    42    10     9   ar
    43    30    25   ar
    44    28    27   ar
    45     8     9   ar
    46     8    58    1
    47    64     4    1
    48     9    67    1
    49     5     4   ar
    50     5     6   ar
    51    58    16    1
    52    58     6    1
    53     4     3   ar
    54    72    15    1
    55    25    79    1
    56    25    26   ar
    57    16    15   ar
    58    16    17   ar
    59    15    14   ar
    60    27    26   ar
    61    27    57    1
    62    73    17    1
    63     6     1   ar
    64    17    18   ar
    65    14    71    1
    66    14    13   ar
    67    18    13   ar
    68    18    74    1
    69    13    57    1
    70    26    80    1
    71    77    22    1
    72    57    23    1
    73     3    63    1
    74     3     2   ar
    75     1     2   ar
    76     1    62    1
    77   109    61    1
    78    22    23   ar
    79    22    21   ar
    80    23    24   ar
    81     2    60    1
    82   108    61    1
    83    61   107    1
    84    61    48    1
    85    76    21    1
    86    21    20   ar
    87    24    78    1
    88    24    19   ar
    89    60   106    1
    90    60   104    1
    91    60   105    1
    92    95    47    1
    93    48    47   ar
    94    48    43   ar
    95    92    43    1
    96    47    46   ar
    97    20    19   ar
    98    20    55    1
    99    43    44   ar
   100    19    75    1
   101    46    55    1
   102    46    45   ar
   103    44    45   ar
   104    44    93    1
   105    55    54    1
   106    45    94    1
   107    96    49    1
   108    54    49   ar
   109    54    53   ar
   110    49    50   ar
   111   100    53    1
   112    53    52   ar
   113    50    97    1
   114    50    51   ar
   115    52    51   ar
   116    52    99    1
   117    51    98    1
