@<TRIPOS>MOLECULE
Analysis/pc_mapping/ac85c387eec36b98aaab7138b62a8b88.pdb
 20 20 0 0 0
SMALL
GASTEIGER

@<TRIPOS>ATOM
      1  C         50.1790   51.3990    9.8230 C.ar   42  T0142       0.0652
      2  C1        49.7310   51.5660   11.1830 C.ar   42  T0142       0.1674
      3  C2        50.5620   51.4670   12.2440 C.ar   42  T0142       0.1674
      4  C3        51.9690   51.1850   12.1100 C.ar   42  T0142       0.0652
      5  C4        52.4170   51.0190   10.7510 C.ar   42  T0142       0.1674
      6  C5        51.5860   51.1190    9.6890 C.ar   42  T0142       0.1674
      7  F         52.0900   50.9510    8.4750 F      42  T0142      -0.2020
      8  F1        53.6970   50.7580   10.5270 F      42  T0142      -0.2020
      9  F2        50.0580   51.6350   13.4580 F      42  T0142      -0.2020
     10  F3        48.4500   51.8270   11.4060 F      42  T0142      -0.2020
     11  C6        49.3300   51.5000    8.7390 C.3    42  T0142       0.2083
     12  C7        47.9370   51.7750    8.8480 C.1    42  T0142       0.0923
     13  C8        49.7490   51.3390    7.3880 C.1    42  T0142       0.0923
     14  C9        52.8180   51.0840   13.1940 C.3    42  T0142       0.2083
     15 C10        52.3980   51.2430   14.5450 C.1    42  T0142       0.0923
     16 C11        54.2110   50.8070   13.0850 C.1    42  T0142       0.0923
     17  N         46.8050   51.9940    8.8420 N.1    42  T0142      -0.1945
     18  N1        50.0000   51.2250    6.2680 N.1    42  T0142      -0.1945
     19  N2        55.3420   50.5880   13.0910 N.1    42  T0142      -0.1945
     20  N3        52.1480   51.3570   15.6650 N.1    42  T0142      -0.1945
@<TRIPOS>BOND
     1    18    13    3
     2    13    11    1
     3     7     6    1
     4    11    12    1
     5    11     1    1
     6    17    12    3
     7     6     1   ar
     8     6     5   ar
     9     1     2   ar
    10     8     5    1
    11     5     4   ar
    12     2    10    1
    13     2     3   ar
    14     4     3   ar
    15     4    14    1
    16     3     9    1
    17    16    19    3
    18    16    14    1
    19    14    15    1
    20    15    20    3
