@<TRIPOS>MOLECULE
Analysis/pc_mapping/7bcea01794773fc317d8fb5a8ea7c275.pdb
 18 18 0 0 0
SMALL
GASTEIGER

@<TRIPOS>ATOM
      1  N         -7.0700  -58.8150    8.1200 N.1    14  T0014      -0.1945
      2  N1        -5.0420  -56.7330    4.7950 N.1    14  T0014      -0.1945
      3  N2        -7.2180  -50.5680    7.7060 N.1    14  T0014      -0.1901
      4  N3        -5.1100  -52.9010    4.6030 N.1    14  T0014      -0.1901
      5  N4        -8.9110  -56.7900   10.8150 N.1    14  T0014      -0.1945
      6  N5        -8.9830  -52.3780   10.5990 N.1    14  T0014      -0.1945
      7  C         -6.8220  -55.4150    7.4680 C.2    14  T0014       0.0049
      8  C1        -6.8460  -54.0060    7.3970 C.2    14  T0014       0.0149
      9  C2        -7.4960  -54.6700    8.4590 C.2    14  T0014       0.0049
     10  C3        -6.4340  -56.6090    6.9570 C.3    14  T0014       0.2036
     11  C4        -6.5010  -52.8570    6.7690 C.2    14  T0014       0.1359
     12  C5        -8.2310  -54.6270    9.5970 C.3    14  T0014       0.2036
     13  C6        -6.7870  -57.8260    7.6000 C.1    14  T0014       0.0921
     14  C7        -5.6650  -56.6750    5.7640 C.1    14  T0014       0.0921
     15  C8        -6.8980  -51.5940    7.2870 C.1    14  T0014       0.1108
     16  C9        -5.7330  -52.8820    5.5730 C.1    14  T0014       0.1108
     17 C10        -8.6050  -55.8220   10.2690 C.1    14  T0014       0.0921
     18 C11        -8.6450  -53.3850   10.1490 C.1    14  T0014       0.0921
@<TRIPOS>BOND
     1     4    16    3
     2     2    14    3
     3    16    11    1
     4    14    10    1
     5    11    15    1
     6    11     8    2
     7    10     7    1
     8    10    13    1
     9    15     3    3
    10     8     7    1
    11     8     9    1
    12     7     9    2
    13    13     1    3
    14     9    12    1
    15    12    18    1
    16    12    17    1
    17    18     6    3
    18    17     5    3
