@<TRIPOS>MOLECULE
Analysis/pc_mapping/85c3a3ab062b03030c19959e00caa036.pdb
 94 105 0 0 0
SMALL
GASTEIGER

@<TRIPOS>ATOM
      1  N         13.7360  -17.8540    7.5700 N.ar    0  T010       -0.3087
      2  C         14.0400  -16.7640    8.3780 C.ar    0  T010        0.0549
      3  C1        14.8690  -18.1930    6.8400 C.ar    0  T010        0.0549
      4  C2        12.4810  -18.4990    7.4960 C.ar    0  T010        0.0473
      5  C3        15.3880  -16.3980    8.1660 C.ar    0  T010        0.0079
      6  C4        13.2210  -16.0580    9.2530 C.ar    0  T010       -0.0372
      7  C5        15.9180  -17.3120    7.1840 C.ar    0  T010        0.0079
      8  C6        15.0530  -19.2270    5.9280 C.ar    0  T010       -0.0372
      9  C7        12.3450  -19.8230    7.9040 C.ar    0  T010       -0.0361
     10  C8        11.3670  -17.8190    7.0090 C.ar    0  T010       -0.0361
     11  C9        15.9230  -15.3140    8.8590 C.ar    0  T010       -0.0520
     12 C10        13.7770  -14.9830    9.9310 C.ar    0  T010       -0.0598
     13 C11        17.1670  -17.4640    6.5860 C.ar    0  T010       -0.0520
     14 C12        16.3070  -19.3580    5.3480 C.ar    0  T010       -0.0598
     15 C13        11.1140  -20.4540    7.8430 C.ar    0  T010       -0.0381
     16 C14        10.1420  -18.4580    6.9150 C.ar    0  T010       -0.0381
     17 C15        15.1150  -14.6150    9.7420 C.ar    0  T010       -0.0611
     18 C16        17.3540  -18.4850    5.6670 C.ar    0  T010       -0.0611
     19 C17         9.9990  -19.7820    7.3370 C.ar    0  T010        0.0389
     20  N1         8.7490  -20.4320    7.2500 N.pl3   0  T010       -0.2692
     21 C18         8.6830  -21.8400    7.2160 C.ar    0  T010        0.0389
     22 C19         7.5640  -19.6670    7.1870 C.ar    0  T010        0.0389
     23 C20         8.9520  -22.5360    6.0340 C.ar    0  T010       -0.0381
     24 C21         8.3480  -22.5660    8.3620 C.ar    0  T010       -0.0381
     25 C22         7.4120  -18.5230    7.9740 C.ar    0  T010       -0.0381
     26 C23         6.5230  -20.0430    6.3360 C.ar    0  T010       -0.0381
     27 C24         8.9080  -23.9190    6.0070 C.ar    0  T010       -0.0361
     28 C25         8.2710  -23.9470    8.3230 C.ar    0  T010       -0.0361
     29 C26         6.2480  -17.7760    7.9110 C.ar    0  T010       -0.0361
     30 C27         5.3600  -19.2940    6.2730 C.ar    0  T010       -0.0361
     31 C28         8.5590  -24.6370    7.1480 C.ar    0  T010        0.0473
     32 C29         5.2120  -18.1540    7.0610 C.ar    0  T010        0.0473
     33  N2         8.5000  -26.0470    7.1130 N.ar    0  T010       -0.3087
     34  N3         4.0250  -17.3920    6.9960 N.ar    0  T010       -0.3087
     35 C30         9.5550  -26.8960    6.7960 C.ar    0  T010        0.0549
     36 C31         7.3800  -26.8210    7.4000 C.ar    0  T010        0.0549
     37 C32         3.9460  -16.0330    6.7040 C.ar    0  T010        0.0549
     38 C33         2.7360  -17.8730    7.2080 C.ar    0  T010        0.0549
     39 C34         9.1090  -28.2340    6.8790 C.ar    0  T010        0.0079
     40 C35        10.8550  -26.5820    6.4150 C.ar    0  T010       -0.0372
     41 C36         7.7200  -28.1870    7.2660 C.ar    0  T010        0.0079
     42 C37         6.1080  -26.4190    7.7970 C.ar    0  T010       -0.0372
     43 C38         2.5900  -15.6380    6.7280 C.ar    0  T010        0.0079
     44 C39         4.9630  -15.1380    6.3900 C.ar    0  T010       -0.0372
     45 C40         1.8180  -16.8100    7.0510 C.ar    0  T010        0.0079
     46 C41         2.3200  -19.1540    7.5540 C.ar    0  T010       -0.0372
     47 C42         9.9930  -29.2720    6.5920 C.ar    0  T010       -0.0520
     48 C43        11.7160  -27.6340    6.1330 C.ar    0  T010       -0.0598
     49 C44         6.7570  -29.1600    7.5180 C.ar    0  T010       -0.0520
     50 C45         5.1690  -27.4100    8.0430 C.ar    0  T010       -0.0598
     51 C46         2.2560  -14.3140    6.4490 C.ar    0  T010       -0.0520
     52 C47         4.6030  -13.8260    6.1150 C.ar    0  T010       -0.0598
     53 C48         0.4570  -17.0480    7.2290 C.ar    0  T010       -0.0520
     54 C49         0.9580  -19.3630    7.7260 C.ar    0  T010       -0.0598
     55 C50        11.2940  -28.9660    6.2240 C.ar    0  T010       -0.0611
     56 C51         5.4850  -28.7670    7.9020 C.ar    0  T010       -0.0611
     57 C52         3.2650  -13.4140    6.1470 C.ar    0  T010       -0.0611
     58 C53         0.0330  -18.3250    7.5620 C.ar    0  T010       -0.0611
     59  H         12.1850  -16.3310    9.3980 H       0  T010        0.0638
     60  H1        14.2530  -19.9120    5.6830 H       0  T010        0.0638
     61  H2        13.2100  -20.3540    8.2790 H       0  T010        0.0639
     62  H3        11.4670  -16.7890    6.6960 H       0  T010        0.0639
     63  H4        16.9530  -15.0210    8.7090 H       0  T010        0.0624
     64  H5        13.1620  -14.4170   10.6190 H       0  T010        0.0618
     65  H6        17.9810  -16.7960    6.8380 H       0  T010        0.0624
     66  H7        16.4770  -20.1540    4.6330 H       0  T010        0.0618
     67  H8        11.0160  -21.4780    8.1730 H       0  T010        0.0637
     68  H9         9.2850  -17.9270    6.5240 H       0  T010        0.0637
     69 H10        15.5170  -13.7720   10.2880 H       0  T010        0.0618
     70 H11        18.3180  -18.6140    5.1940 H       0  T010        0.0618
     71 H12         9.2110  -21.9860    5.1390 H       0  T010        0.0637
     72 H13         8.1340  -22.0400    9.2830 H       0  T010        0.0637
     73 H14         8.2070  -18.2270    8.6440 H       0  T010        0.0637
     74 H15         6.6320  -20.9210    5.7150 H       0  T010        0.0637
     75 H16         9.1370  -24.4510    5.0930 H       0  T010        0.0639
     76 H17         7.9930  -24.5010    9.2100 H       0  T010        0.0639
     77 H18         6.1270  -16.9050    8.5410 H       0  T010        0.0639
     78 H19         4.5670  -19.5780    5.5950 H       0  T010        0.0639
     79 H20        11.1860  -25.5570    6.3350 H       0  T010        0.0638
     80 H21         5.8610  -25.3740    7.9150 H       0  T010        0.0638
     81 H22         5.9960  -15.4500    6.3540 H       0  T010        0.0638
     82 H23         3.0270  -19.9600    7.6910 H       0  T010        0.0638
     83 H24         9.6670  -30.3020    6.6520 H       0  T010        0.0624
     84 H25        12.7340  -27.4190    5.8360 H       0  T010        0.0618
     85 H26         7.0000  -30.2120    7.4190 H       0  T010        0.0624
     86 H27         4.1720  -27.1260    8.3520 H       0  T010        0.0618
     87 H28         1.2210  -13.9940    6.4630 H       0  T010        0.0624
     88 H29         5.3750  -13.1070    5.8690 H       0  T010        0.0618
     89 H30        -0.2590  -16.2450    7.1130 H       0  T010        0.0624
     90 H31         0.6060  -20.3510    7.9950 H       0  T010        0.0618
     91 H32        11.9910  -29.7620    6.0000 H       0  T010        0.0618
     92 H33         4.7270  -29.5140    8.1010 H       0  T010        0.0618
     93 H34         3.0210  -12.3810    5.9290 H       0  T010        0.0618
     94 H35        -1.0220  -18.5240    7.7020 H       0  T010        0.0618
@<TRIPOS>BOND
     1    66    14    1
     2    75    27    1
     3    71    23    1
     4    70    18    1
     5    14    18   ar
     6    14     8   ar
     7    78    30    1
     8    18    13   ar
     9    60     8    1
    10    74    26    1
    11    84    48    1
    12    88    52    1
    13     8     3   ar
    14    93    57    1
    15    91    55    1
    16    27    23   ar
    17    27    31   ar
    18    23    21   ar
    19    52    57   ar
    20    52    44   ar
    21    48    55   ar
    22    48    40   ar
    23    57    51   ar
    24    55    47   ar
    25    30    26   ar
    26    30    32   ar
    27    79    40    1
    28    26    22   ar
    29    81    44    1
    30    44    37   ar
    31    40    35   ar
    32    51    87    1
    33    51    43   ar
    34    68    16    1
    35    13    65    1
    36    13     7   ar
    37    47    83    1
    38    47    39   ar
    39    62    10    1
    40    37    43   ar
    41    37    34   ar
    42    43    45   ar
    43    35    39   ar
    44    35    33   ar
    45     3     7   ar
    46     3     1   ar
    47    39    41   ar
    48    16    10   ar
    49    16    19   ar
    50    34    32    1
    51    34    38   ar
    52    10     4   ar
    53    45    38   ar
    54    45    53   ar
    55    32    29   ar
    56    33    31    1
    57    33    36   ar
    58    89    53    1
    59    31    28   ar
    60     7     5   ar
    61    22    20    1
    62    22    25   ar
    63    38    46   ar
    64    21    20    1
    65    21    24   ar
    66    53    58   ar
    67    20    19    1
    68    41    36   ar
    69    41    49   ar
    70    19    15   ar
    71    36    42   ar
    72    85    49    1
    73     4     1    1
    74     4     9   ar
    75    49    56   ar
    76    46    82    1
    77    46    54   ar
    78    58    94    1
    79    58    54   ar
    80     1     2   ar
    81    54    90    1
    82    42    80    1
    83    42    50   ar
    84    15     9   ar
    85    15    67    1
    86    56    50   ar
    87    56    92    1
    88     9    61    1
    89    29    25   ar
    90    29    77    1
    91    25    73    1
    92    50    86    1
    93     5     2   ar
    94     5    11   ar
    95    28    24   ar
    96    28    76    1
    97    24    72    1
    98     2     6   ar
    99    63    11    1
   100    11    17   ar
   101     6    59    1
   102     6    12   ar
   103    17    12   ar
   104    17    69    1
   105    12    64    1
