@<TRIPOS>MOLECULE
Analysis/pc_mapping/4c32a0a4f1938ddc47bf6ad0b748658e.pdb
 62 69 0 0 0
SMALL
GASTEIGER

@<TRIPOS>ATOM
      1  N        -31.3180    0.1030    6.3480 N.ar    0  T000       -0.3087
      2  N1       -40.6330    2.5480    8.7250 N.ar    0  T000       -0.3087
      3  C        -30.2290    0.9680    6.3380 C.ar    0  T000        0.0549
      4  C1       -30.8830   -1.1630    5.9680 C.ar    0  T000        0.0549
      5  C2       -41.5530    1.7190    9.3600 C.ar    0  T000        0.0549
      6  C3       -41.2400    3.7750    8.4780 C.ar    0  T000        0.0549
      7  C4       -29.0770    0.2500    5.9470 C.ar    0  T000        0.0079
      8  C5       -29.4940   -1.1110    5.7120 C.ar    0  T000        0.0079
      9  C6       -42.7670    2.4230    9.5250 C.ar    0  T000        0.0079
     10  C7       -42.5670    3.7360    8.9630 C.ar    0  T000        0.0079
     11  C8       -32.6440    0.4510    6.6860 C.ar    0  T000        0.0472
     12  C9       -39.3080    2.2000    8.3870 C.ar    0  T000        0.0472
     13 C10       -30.1800    2.3310    6.6100 C.ar    0  T000       -0.0372
     14 C11       -31.5990   -2.3500    5.8640 C.ar    0  T000       -0.0372
     15 C12       -41.4170    0.3960    9.7680 C.ar    0  T000       -0.0372
     16 C13       -40.7090    4.9220    7.9000 C.ar    0  T000       -0.0372
     17 C14       -35.2830    1.1410    7.3600 C.ar    0  T000       -0.0178
     18 C15       -36.6700    1.5060    7.7140 C.ar    0  T000       -0.0178
     19 C16       -27.8550    0.9110    5.8460 C.ar    0  T000       -0.0520
     20 C17       -28.8220   -2.2700    5.3270 C.ar    0  T000       -0.0520
     21 C18       -43.8530    1.7900   10.1260 C.ar    0  T000       -0.0520
     22 C19       -43.3760    4.8640    8.8430 C.ar    0  T000       -0.0520
     23 C20       -33.6670    0.3140    5.7510 C.ar    0  T000       -0.0373
     24 C21       -38.5060    1.5150    9.2980 C.ar    0  T000       -0.0373
     25 C22       -32.9420    0.9330    7.9570 C.ar    0  T000       -0.0373
     26 C23       -38.7890    2.5370    7.1400 C.ar    0  T000       -0.0373
     27 C24       -34.9690    0.6490    6.0900 C.ar    0  T000       -0.0521
     28 C25       -37.2090    1.1680    8.9590 C.ar    0  T000       -0.0521
     29 C26       -34.2430    1.2810    8.2840 C.ar    0  T000       -0.0521
     30 C27       -37.4850    2.2010    6.8150 C.ar    0  T000       -0.0521
     31 C28       -28.9510    2.9660    6.5020 C.ar    0  T000       -0.0598
     32 C29       -30.9070   -3.4890    5.4810 C.ar    0  T000       -0.0598
     33 C30       -42.5130   -0.2120   10.3640 C.ar    0  T000       -0.0598
     34 C31       -41.5360    6.0320    7.7920 C.ar    0  T000       -0.0598
     35 C32       -27.7970    2.2660    6.1300 C.ar    0  T000       -0.0611
     36 C33       -29.5340   -3.4530    5.2090 C.ar    0  T000       -0.0611
     37 C34       -43.7180    0.4770   10.5470 C.ar    0  T000       -0.0611
     38 C35       -42.8570    6.0060    8.2540 C.ar    0  T000       -0.0611
     39  H        -31.0670    2.8830    6.8890 H       0  T000        0.0638
     40  H1       -32.6570   -2.3900    6.0800 H       0  T000        0.0638
     41  H2       -40.4940   -0.1460    9.6220 H       0  T000        0.0638
     42  H3       -39.6870    4.9550    7.5490 H       0  T000        0.0638
     43  H4       -26.9640    0.3730    5.5470 H       0  T000        0.0624
     44  H5       -27.7580   -2.2460    5.1290 H       0  T000        0.0624
     45  H6       -44.7900    2.3170   10.2580 H       0  T000        0.0624
     46  H7       -44.3950    4.8490    9.2100 H       0  T000        0.0624
     47  H8       -33.4370   -0.0540    4.7610 H       0  T000        0.0638
     48  H9       -38.9060    1.2580   10.2690 H       0  T000        0.0638
     49 H10       -32.1490    1.0340    8.6870 H       0  T000        0.0638
     50 H11       -39.4110    3.0640    6.4290 H       0  T000        0.0638
     51 H12       -35.7560    0.5130    5.3590 H       0  T000        0.0624
     52 H13       -36.6080    0.6140    9.6680 H       0  T000        0.0624
     53 H14       -34.4520    1.6770    9.2690 H       0  T000        0.0624
     54 H15       -37.0890    2.4920    5.8510 H       0  T000        0.0624
     55 H16       -28.8850    4.0260    6.7100 H       0  T000        0.0618
     56 H17       -31.4420   -4.4260    5.3920 H       0  T000        0.0618
     57 H18       -42.4330   -1.2400   10.6910 H       0  T000        0.0618
     58 H19       -41.1470    6.9380    7.3440 H       0  T000        0.0618
     59 H20       -26.8540    2.7930    6.0580 H       0  T000        0.0618
     60 H21       -29.0250   -4.3600    4.9110 H       0  T000        0.0618
     61 H22       -44.5530   -0.0270   11.0180 H       0  T000        0.0618
     62 H23       -43.4740    6.8890    8.1530 H       0  T000        0.0618
@<TRIPOS>BOND
     1    47    23    1
     2    60    36    1
     3    44    20    1
     4    36    20   ar
     5    36    32   ar
     6    20     8   ar
     7    51    27    1
     8    56    32    1
     9    32    14   ar
    10    43    19    1
    11     8     7   ar
    12     8     4   ar
    13    23    27   ar
    14    23    11   ar
    15    19     7   ar
    16    19    35   ar
    17    54    30    1
    18    14     4   ar
    19    14    40    1
    20     7     3   ar
    21     4     1   ar
    22    59    35    1
    23    27    17   ar
    24    35    31   ar
    25     3     1   ar
    26     3    13   ar
    27     1    11    1
    28    50    26    1
    29    31    13   ar
    30    31    55    1
    31    13    39    1
    32    11    25   ar
    33    30    26   ar
    34    30    18   ar
    35    26    12   ar
    36    58    34    1
    37    17    18    1
    38    17    29   ar
    39    42    16    1
    40    18    28   ar
    41    34    16   ar
    42    34    38   ar
    43    16     6   ar
    44    25    29   ar
    45    25    49    1
    46    62    38    1
    47    38    22   ar
    48    29    53    1
    49    12     2    1
    50    12    24   ar
    51     6     2   ar
    52     6    10   ar
    53     2     5   ar
    54    22    10   ar
    55    22    46    1
    56    28    24   ar
    57    28    52    1
    58    10     9   ar
    59    24    48    1
    60     5     9   ar
    61     5    15   ar
    62     9    21   ar
    63    41    15    1
    64    15    33   ar
    65    21    45    1
    66    21    37   ar
    67    33    37   ar
    68    33    57    1
    69    37    61    1
