@<TRIPOS>MOLECULE
Analysis/pc_mapping/7bcea01794773fc317d8fb5a8ea7c275.pdb
 18 18 0 0 0
SMALL
GASTEIGER

@<TRIPOS>ATOM
      1  N        -33.6110   12.8130    7.0800 N.1    15  T0115      -0.1945
      2  N1       -29.5050   13.8220    8.3530 N.1    15  T0115      -0.1945
      3  N2       -31.1720   20.7000    7.2920 N.1    15  T0115      -0.1945
      4  N3       -28.3710   17.4870    8.4510 N.1    15  T0115      -0.1945
      5  N4       -36.0470   15.6040    6.0630 N.1    15  T0115      -0.1901
      6  N5       -34.7460   19.8240    6.1840 N.1    15  T0115      -0.1901
      7  C        -32.0840   15.9180    7.3500 C.2    15  T0115       0.0049
      8  C1       -31.6670   17.2660    7.3870 C.2    15  T0115       0.0049
      9  C2       -32.9790   16.9440    6.9780 C.2    15  T0115       0.0149
     10  C3       -31.8180   14.6020    7.5350 C.3    15  T0115       0.2036
     11  C4       -30.7090   18.1910    7.6320 C.3    15  T0115       0.2036
     12  C5       -34.2020   17.3330    6.5460 C.2    15  T0115       0.1359
     13  C6       -32.8100   13.6160    7.2830 C.1    15  T0115       0.0921
     14  C7       -30.5410   14.1740    7.9870 C.1    15  T0115       0.0921
     15  C8       -30.9660   19.5760    7.4440 C.1    15  T0115       0.0921
     16  C9       -29.4190   17.8010    8.0840 C.1    15  T0115       0.0921
     17 C10       -35.2200   16.3780    6.2800 C.1    15  T0115       0.1108
     18 C11       -34.5010   18.7090    6.3460 C.1    15  T0115       0.1108
@<TRIPOS>BOND
     1     5    17    3
     2     6    18    3
     3    17    12    1
     4    18    12    1
     5    12     9    2
     6     9     7    1
     7     9     8    1
     8     1    13    3
     9    13    10    1
    10     3    15    3
    11     7     8    2
    12     7    10    1
    13     8    11    1
    14    15    11    1
    15    10    14    1
    16    11    16    1
    17    14     2    3
    18    16     4    3
