@<TRIPOS>MOLECULE
Analysis/pc_mapping/695799182ba3f3c9bd28a9aeb6a76a96.pdb
 100 109 0 0 0
SMALL
GASTEIGER

@<TRIPOS>ATOM
      1  C        -11.8760   35.0520    6.8180 C.3     0  T000       -0.0517
      2  C1       -11.1540   36.2430    6.1650 C.3     0  T000        0.0163
      3  C2        -9.7820   36.4650    6.7830 C.ar    0  T000       -0.0297
      4  C3        -8.6940   35.6130    6.8020 C.ar    0  T000       -0.0572
      5  C4        -7.5210   36.0240    7.4350 C.ar    0  T000       -0.0614
      6  C5        -7.4470   37.2760    8.0410 C.ar    0  T000       -0.0612
      7  C6        -8.5390   38.1370    8.0230 C.ar    0  T000       -0.0537
      8  C7        -9.7080   37.7270    7.3920 C.ar    0  T000       -0.0136
      9  C8       -10.9900   38.4010    7.2170 C.ar    0  T000       -0.0135
     10  C9       -11.4360   39.6550    7.6220 C.ar    0  T000       -0.0520
     11 C10       -12.7310   40.0460    7.3210 C.ar    0  T000       -0.0394
     12 C11       -13.5850   39.2030    6.6000 C.ar    0  T000        0.0391
     13 C12       -13.1300   37.9450    6.1860 C.ar    0  T000       -0.0354
     14 C13       -11.8480   37.5530    6.5020 C.ar    0  T000       -0.0279
     15  N        -14.9000   39.6180    6.2950 N.pl3   0  T000       -0.2692
     16 C14       -15.9940   38.7930    6.6310 C.ar    0  T000        0.0388
     17 C15       -16.0310   38.1180    7.8540 C.ar    0  T000       -0.0394
     18 C16       -17.1070   37.3080    8.1760 C.ar    0  T000       -0.0523
     19 C17       -18.1900   37.1490    7.3060 C.ar    0  T000       -0.0178
     20 C18       -18.1410   37.8350    6.0880 C.ar    0  T000       -0.0523
     21 C19       -17.0660   38.6360    5.7510 C.ar    0  T000       -0.0394
     22 C20       -19.3370   36.2920    7.6580 C.ar    0  T000       -0.0178
     23 C21       -19.8720   35.3800    6.7410 C.ar    0  T000       -0.0523
     24 C22       -20.9520   34.5770    7.0650 C.ar    0  T000       -0.0394
     25 C23       -21.5310   34.6450    8.3340 C.ar    0  T000        0.0388
     26  N1       -22.6230   33.8180    8.6720 N.pl3   0  T000       -0.2692
     27 C24       -23.6760   34.3230    9.4650 C.ar    0  T000        0.0388
     28 C25       -24.3350   35.5020    9.1040 C.ar    0  T000       -0.0400
     29 C26       -25.3650   35.9960    9.8910 C.ar    0  T000       -0.0600
     30 C27       -25.7670   35.3190   11.0380 C.ar    0  T000       -0.0616
     31 C28       -25.1170   34.1430   11.3950 C.ar    0  T000       -0.0600
     32 C29       -24.0750   33.6500   10.6230 C.ar    0  T000       -0.0400
     33 C30       -22.6630   32.4830    8.2140 C.ar    0  T000        0.0391
     34 C31       -23.8170   31.9860    7.5950 C.ar    0  T000       -0.0354
     35 C32       -23.8420   30.6770    7.1640 C.ar    0  T000       -0.0279
     36 C33       -24.9790   29.9330    6.4810 C.3     0  T000        0.0163
     37 C34       -24.3530   28.5640    6.2700 C.ar    0  T000       -0.0297
     38 C35       -24.9050   27.4410    5.6840 C.ar    0  T000       -0.0572
     39 C36       -24.1450   26.2750    5.5970 C.ar    0  T000       -0.0614
     40 C37       -22.8430   26.2430    6.0940 C.ar    0  T000       -0.0612
     41 C38       -22.2810   27.3700    6.6830 C.ar    0  T000       -0.0537
     42 C39       -23.0420   28.5310    6.7700 C.ar    0  T000       -0.0136
     43 C40       -22.7260   29.8450    7.3230 C.ar    0  T000       -0.0135
     44 C41       -21.5750   30.3370    7.9290 C.ar    0  T000       -0.0520
     45 C42       -21.5520   31.6480    8.3800 C.ar    0  T000       -0.0394
     46 C43       -25.3530   30.5910    5.1420 C.3     0  T000       -0.0517
     47 C44       -26.2120   29.8500    7.3950 C.3     0  T000       -0.0517
     48 C45       -21.0020   35.5450    9.2600 C.ar    0  T000       -0.0394
     49 C46       -19.9320   36.3550    8.9220 C.ar    0  T000       -0.0523
     50 C47       -15.1180   40.8600    5.6610 C.ar    0  T000        0.0388
     51 C48       -14.1330   41.4240    4.8460 C.ar    0  T000       -0.0400
     52 C49       -14.3520   42.6460    4.2280 C.ar    0  T000       -0.0600
     53 C50       -15.5570   43.3200    4.3960 C.ar    0  T000       -0.0616
     54 C51       -16.5410   42.7570    5.2020 C.ar    0  T000       -0.0600
     55 C52       -16.3250   41.5420    5.8360 C.ar    0  T000       -0.0400
     56 C53       -11.0560   36.0360    4.6440 C.3     0  T000       -0.0517
     57  H        -11.8110   35.1080    7.9050 H       0  T000        0.0241
     58  H1       -12.9320   35.0410    6.5380 H       0  T000        0.0241
     59  H2       -11.4300   34.1090    6.4950 H       0  T000        0.0241
     60  H3        -8.7410   34.6370    6.3340 H       0  T000        0.0621
     61  H4        -6.6620   35.3660    7.4570 H       0  T000        0.0618
     62  H5        -6.5310   37.5810    8.5300 H       0  T000        0.0618
     63  H6        -8.4750   39.1100    8.4960 H       0  T000        0.0624
     64  H7       -10.7890   40.3210    8.1810 H       0  T000        0.0624
     65  H8       -13.0940   41.0120    7.6410 H       0  T000        0.0636
     66  H9       -13.7940   37.3000    5.6260 H       0  T000        0.0639
     67 H10       -15.2060   38.2230    8.5460 H       0  T000        0.0636
     68 H11       -17.0990   36.7800    9.1210 H       0  T000        0.0624
     69 H12       -18.9690   37.7510    5.3960 H       0  T000        0.0624
     70 H13       -17.0560   39.1570    4.8020 H       0  T000        0.0636
     71 H14       -19.4280   35.2890    5.7580 H       0  T000        0.0624
     72 H15       -21.3440   33.8800    6.3380 H       0  T000        0.0636
     73 H16       -24.0340   36.0260    8.2080 H       0  T000        0.0636
     74 H17       -25.8660   36.9090    9.5960 H       0  T000        0.0618
     75 H18       -26.5750   35.7050   11.6460 H       0  T000        0.0618
     76 H19       -25.4130   33.6100   12.2890 H       0  T000        0.0618
     77 H20       -23.5670   32.7400   10.9100 H       0  T000        0.0636
     78 H21       -24.6720   32.6370    7.4660 H       0  T000        0.0639
     79 H22       -25.9170   27.4560    5.2950 H       0  T000        0.0621
     80 H23       -24.5670   25.3890    5.1420 H       0  T000        0.0618
     81 H24       -22.2650   25.3300    6.0200 H       0  T000        0.0618
     82 H25       -21.2690   27.3400    7.0660 H       0  T000        0.0624
     83 H26       -20.7050   29.7060    8.0680 H       0  T000        0.0624
     84 H27       -20.6690   32.0400    8.8650 H       0  T000        0.0636
     85 H28       -25.9640   31.4800    5.3060 H       0  T000        0.0241
     86 H29       -25.9240   29.8980    4.5210 H       0  T000        0.0241
     87 H30       -24.4590   30.8850    4.5900 H       0  T000        0.0241
     88 H31       -26.7750   30.7850    7.3730 H       0  T000        0.0241
     89 H32       -26.8750   29.0430    7.0750 H       0  T000        0.0241
     90 H33       -25.9140   29.6540    8.4260 H       0  T000        0.0241
     91 H34       -21.4430   35.6160   10.2460 H       0  T000        0.0636
     92 H35       -19.5570   37.0600    9.6540 H       0  T000        0.0624
     93 H36       -13.1980   40.9000    4.7020 H       0  T000        0.0636
     94 H37       -13.5780   43.0680    3.5990 H       0  T000        0.0618
     95 H38       -15.7250   44.2710    3.9090 H       0  T000        0.0618
     96 H39       -17.4810   43.2730    5.3500 H       0  T000        0.0618
     97 H40       -17.0910   41.1140    6.4690 H       0  T000        0.0636
     98 H41       -10.6840   36.9400    4.1560 H       0  T000        0.0241
     99 H42       -12.0360   35.8040    4.2240 H       0  T000        0.0241
    100 H43       -10.3790   35.2140    4.4070 H       0  T000        0.0241
@<TRIPOS>BOND
     1    94    52    1
     2    95    53    1
     3    98    56    1
     4    99    56    1
     5    52    53   ar
     6    52    51   ar
     7    53    54   ar
     8   100    56    1
     9    86    46    1
    10    87    46    1
    11    56     2    1
    12    93    51    1
    13    70    21    1
    14    51    50   ar
    15    46    85    1
    16    46    36    1
    17    80    39    1
    18    54    96    1
    19    54    55   ar
    20    79    38    1
    21    69    20    1
    22    39    38   ar
    23    39    40   ar
    24    66    13    1
    25    50    55   ar
    26    50    15    1
    27    38    37   ar
    28    21    20   ar
    29    21    16   ar
    30    71    23    1
    31    55    97    1
    32    81    40    1
    33    20    19   ar
    34    40    41   ar
    35     2    14    1
    36     2     3    1
    37     2     1    1
    38    13    14   ar
    39    13    12   ar
    40    37    36    1
    41    37    42   ar
    42    15    12    1
    43    15    16    1
    44    60     4    1
    45    72    24    1
    46    36    35    1
    47    36    47    1
    48    59     1    1
    49    14     9   ar
    50    58     1    1
    51    12    11   ar
    52    16    17   ar
    53    41    42   ar
    54    41    82    1
    55    23    24   ar
    56    23    22   ar
    57    42    43    1
    58     3     4   ar
    59     3     8   ar
    60     4     5   ar
    61     1    57    1
    62    24    25   ar
    63    89    47    1
    64    35    43   ar
    65    35    34   ar
    66     9     8    1
    67     9    10   ar
    68    19    22    1
    69    19    18   ar
    70    11    10   ar
    71    11    65    1
    72    43    44   ar
    73    88    47    1
    74     8     7   ar
    75    47    90    1
    76     5    61    1
    77     5     6   ar
    78    78    34    1
    79    34    33   ar
    80    10    64    1
    81    22    49   ar
    82    17    18   ar
    83    17    67    1
    84    44    83    1
    85    44    45   ar
    86     7     6   ar
    87     7    63    1
    88     6    62    1
    89    18    68    1
    90    73    28    1
    91    33    45   ar
    92    33    26    1
    93    25    26    1
    94    25    48   ar
    95    45    84    1
    96    26    27    1
    97    49    48   ar
    98    49    92    1
    99    28    27   ar
   100    28    29   ar
   101    48    91    1
   102    27    32   ar
   103    74    29    1
   104    29    30   ar
   105    32    77    1
   106    32    31   ar
   107    30    31   ar
   108    30    75    1
   109    31    76    1
