@<TRIPOS>MOLECULE
Analysis/pc_mapping/7bcea01794773fc317d8fb5a8ea7c275.pdb
 18 18 0 0 0
SMALL
GASTEIGER

@<TRIPOS>ATOM
      1  N         56.9230  -48.2600   10.2080 N.1     2  T012       -0.1901
      2  N1        56.3210  -52.5210    9.2160 N.1     2  T012       -0.1901
      3  N2        62.1480  -52.0880    5.0840 N.1     2  T012       -0.1901
      4  N3        58.7480  -54.3000    6.8350 N.1     2  T012       -0.1901
      5  N4        59.8730  -46.3320    8.6800 N.1     2  T012       -0.1901
      6  N5        62.6730  -48.3810    5.9460 N.1     2  T012       -0.1901
      7  C         58.7910  -50.3310    8.1410 C.2     2  T012        0.0221
      8  C1        59.6830  -50.9860    7.2660 C.2     2  T012        0.0221
      9  C2        59.8760  -49.6230    7.5810 C.2     2  T012        0.0221
     10  C3        57.6940  -50.3610    8.9350 C.2     2  T012        0.1365
     11  C4        60.0710  -52.1020    6.6050 C.2     2  T012        0.1365
     12  C5        60.5840  -48.4760    7.4460 C.2     2  T012        0.1365
     13  C6        57.2700  -49.2000    9.6380 C.1     2  T012        0.1108
     14  C7        56.9380  -51.5550    9.0900 C.1     2  T012        0.1108
     15  C8        61.2180  -52.0930    5.7660 C.1     2  T012        0.1108
     16  C9        59.3400  -53.3160    6.7330 C.1     2  T012        0.1108
     17 C10        60.1910  -47.2930    8.1280 C.1     2  T012        0.1108
     18 C11        61.7370  -48.4240    6.6180 C.1     2  T012        0.1108
@<TRIPOS>BOND
     1     3    15    3
     2    15    11    1
     3     6    18    3
     4    11    16    1
     5    11     8    2
     6    18    12    1
     7    16     4    3
     8     8     9    1
     9     8     7    1
    10    12     9    2
    11    12    17    1
    12     9     7    1
    13    17     5    3
    14     7    10    2
    15    10    14    1
    16    10    13    1
    17    14     2    3
    18    13     1    3
