@<TRIPOS>MOLECULE
Analysis/pc_mapping/7049b4f04320513007a41f2c80ce9989.pdb
 78 85 0 0 0
SMALL
GASTEIGER

@<TRIPOS>ATOM
      1  N          0.2460    1.2940   10.7990 N.pl3   0  T000       -0.2686
      2  N1         8.3560   -1.3330    5.6740 N.pl3   0  T000       -0.2686
      3  C         -0.3700    0.3370   11.6500 C.ar    0  T000        0.0464
      4  C1         9.1080   -2.4550    6.1180 C.ar    0  T000        0.0464
      5  C2         1.4050    0.9380   10.0860 C.ar    0  T000        0.0388
      6  C3         7.1960   -0.9800    6.3950 C.ar    0  T000        0.0388
      7  C4        -0.7390   -0.9400   11.1360 C.ar    0  T000        0.0038
      8  C5         9.8430   -2.3810    7.3370 C.ar    0  T000        0.0038
      9  C6         3.6990    0.1720    8.6150 C.ar    0  T000       -0.0178
     10  C7         4.8960   -0.2220    7.8530 C.ar    0  T000       -0.0178
     11  C8        -0.1920    2.6350   10.8720 C.ar    0  T000        0.0388
     12  C9         8.6320   -0.7720    4.4130 C.ar    0  T000        0.0388
     13 C10        -1.3290   -1.8860   12.0260 C.ar    0  T000       -0.0161
     14 C11        10.6120   -3.5140    7.7370 C.ar    0  T000       -0.0161
     15 C12         1.7150    1.5520    8.8670 C.ar    0  T000       -0.0394
     16 C13         6.7310    0.3360    6.3620 C.ar    0  T000       -0.0394
     17 C14         2.2530   -0.0680   10.5540 C.ar    0  T000       -0.0394
     18 C15         6.5020   -1.9130    7.1690 C.ar    0  T000       -0.0394
     19 C16         2.8410    1.1800    8.1580 C.ar    0  T000       -0.0523
     20 C17         5.6090    0.7050    7.0820 C.ar    0  T000       -0.0523
     21 C18         3.3690   -0.4440    9.8260 C.ar    0  T000       -0.0523
     22 C19         5.3720   -1.5380    7.8740 C.ar    0  T000       -0.0523
     23 C20        -0.6210    0.6530   12.9650 C.ar    0  T000       -0.0394
     24 C21         9.1120   -3.6120    5.3770 C.ar    0  T000       -0.0394
     25 C22        -0.5640   -1.2980    9.7790 C.ar    0  T000       -0.0522
     26 C23         9.8240   -1.2410    8.1740 C.ar    0  T000       -0.0522
     27 C24        -1.5620   -1.5260   13.3740 C.ar    0  T000       -0.0539
     28 C25        10.5970   -4.6840    6.9410 C.ar    0  T000       -0.0539
     29 C26        -1.2270   -0.2770   13.8280 C.ar    0  T000       -0.0594
     30 C27         9.8510   -4.7340    5.7930 C.ar    0  T000       -0.0594
     31 C28        -1.6890   -3.1620   11.5280 C.ar    0  T000       -0.0540
     32 C29        11.3540   -3.4470    8.9400 C.ar    0  T000       -0.0540
     33 C30         0.7080    3.6990   10.8000 C.ar    0  T000       -0.0400
     34 C31         9.9490   -0.6870    3.9460 C.ar    0  T000       -0.0400
     35 C32        -1.5520    2.9060   11.0420 C.ar    0  T000       -0.0400
     36 C33         7.5950   -0.3250    3.5900 C.ar    0  T000       -0.0400
     37 C34        -0.9330   -2.5390    9.3290 C.ar    0  T000       -0.0611
     38 C35        10.5480   -1.2140    9.3380 C.ar    0  T000       -0.0611
     39 C36        -1.4930   -3.4850   10.2120 C.ar    0  T000       -0.0612
     40 C37        11.3280   -2.3230    9.7220 C.ar    0  T000       -0.0612
     41 C38         0.2510    5.0080   10.8810 C.ar    0  T000       -0.0600
     42 C39        10.2150   -0.1550    2.6950 C.ar    0  T000       -0.0600
     43 C40        -1.9990    4.2150   11.1370 C.ar    0  T000       -0.0600
     44 C41         7.8710    0.1910    2.3310 C.ar    0  T000       -0.0600
     45 C42        -1.1030    5.2760   11.0520 C.ar    0  T000       -0.0616
     46 C43         9.1800    0.2860    1.8750 C.ar    0  T000       -0.0616
     47  H          1.0700    2.3300    8.4820 H       0  T000        0.0636
     48  H1         7.2530    1.0680    5.7600 H       0  T000        0.0636
     49  H2         2.0270   -0.5670   11.4850 H       0  T000        0.0636
     50  H3         6.8590   -2.9320    7.2240 H       0  T000        0.0636
     51  H4         3.0670    1.6920    7.2320 H       0  T000        0.0624
     52  H5         5.2550    1.7260    7.0140 H       0  T000        0.0624
     53  H6         3.9910   -1.2460   10.2020 H       0  T000        0.0624
     54  H7         4.8720   -2.2750    8.4900 H       0  T000        0.0624
     55  H8        -0.3430    1.6320   13.3310 H       0  T000        0.0636
     56  H9         8.5380   -3.6510    4.4600 H       0  T000        0.0636
     57 H10        -0.1350   -0.5820    9.0950 H       0  T000        0.0624
     58 H11         9.2310   -0.3870    7.8890 H       0  T000        0.0624
     59 H12        -2.0180   -2.2500   14.0390 H       0  T000        0.0624
     60 H13        11.1790   -5.5400    7.2580 H       0  T000        0.0624
     61 H14        -1.4110   -0.0030   14.8580 H       0  T000        0.0618
     62 H15         9.8390   -5.6310    5.1880 H       0  T000        0.0618
     63 H16        -2.1300   -3.8790   12.2110 H       0  T000        0.0624
     64 H17        11.9420   -4.3080    9.2350 H       0  T000        0.0624
     65 H18         1.7640    3.4990   10.6820 H       0  T000        0.0636
     66 H19        10.7570   -1.0420    4.5700 H       0  T000        0.0636
     67 H20        -2.2530    2.0840   11.0990 H       0  T000        0.0636
     68 H21         6.5730   -0.3890    3.9380 H       0  T000        0.0636
     69 H22        -0.7950   -2.7960    8.2870 H       0  T000        0.0618
     70 H23        10.5190   -0.3350    9.9690 H       0  T000        0.0618
     71 H24        -1.7740   -4.4630    9.8440 H       0  T000        0.0618
     72 H25        11.9000   -2.2860   10.6410 H       0  T000        0.0618
     73 H26         0.9620    5.8220   10.8250 H       0  T000        0.0618
     74 H27        11.2400   -0.0990    2.3520 H       0  T000        0.0618
     75 H28        -3.0570    4.4080   11.2650 H       0  T000        0.0618
     76 H29         7.0530    0.5300    1.7080 H       0  T000        0.0618
     77 H30        -1.4550    6.2970   11.1190 H       0  T000        0.0618
     78 H31         9.3920    0.6940    0.8960 H       0  T000        0.0618
@<TRIPOS>BOND
     1    78    46    1
     2    76    44    1
     3    46    44   ar
     4    46    42   ar
     5    44    36   ar
     6    74    42    1
     7    42    34   ar
     8    36    68    1
     9    36    12   ar
    10    34    12   ar
    11    34    66    1
    12    12     2    1
    13    56    24    1
    14    62    30    1
    15    24    30   ar
    16    24     4   ar
    17     2     4    1
    18     2     6    1
    19    48    16    1
    20    30    28   ar
    21     4     8   ar
    22    16     6   ar
    23    16    20   ar
    24     6    18   ar
    25    28    60    1
    26    28    14   ar
    27    52    20    1
    28    20    10   ar
    29    18    50    1
    30    18    22   ar
    31    51    19    1
    32     8    14   ar
    33     8    26   ar
    34    14    32   ar
    35    10    22   ar
    36    10     9    1
    37    22    54    1
    38    58    26    1
    39    19     9   ar
    40    19    15   ar
    41    26    38   ar
    42    69    37    1
    43    47    15    1
    44     9    21   ar
    45    15     5   ar
    46    32    64    1
    47    32    40   ar
    48    57    25    1
    49    37    25   ar
    50    37    39   ar
    51    38    40   ar
    52    38    70    1
    53    40    72    1
    54    25     7   ar
    55    21    53    1
    56    21    17   ar
    57    71    39    1
    58     5    17   ar
    59     5     1    1
    60    39    31   ar
    61    17    49    1
    62    65    33    1
    63     1    11    1
    64     1     3    1
    65    33    11   ar
    66    33    41   ar
    67    73    41    1
    68    11    35   ar
    69    41    45   ar
    70    35    67    1
    71    35    43   ar
    72    45    77    1
    73    45    43   ar
    74     7     3   ar
    75     7    13   ar
    76    43    75    1
    77    31    13   ar
    78    31    63    1
    79     3    23   ar
    80    13    27   ar
    81    23    55    1
    82    23    29   ar
    83    27    29   ar
    84    27    59    1
    85    29    61    1
