@<TRIPOS>MOLECULE
Analysis/pc_mapping/9b93113bccbb85d51e0ff85da10b3d5e.pdb
 20 20 0 0 0
SMALL
GASTEIGER

@<TRIPOS>ATOM
      1  N        -20.9970   53.3520    7.5530 N.1    77  T0177      -0.1945
      2  N1       -23.6070   55.8340    5.0360 N.1    77  T0177      -0.1945
      3  N2       -24.8610   56.1510   14.3210 N.1    77  T0177      -0.1945
      4  N3       -27.4740   58.6300   11.8050 N.1    77  T0177      -0.1945
      5  C        -23.5750   55.5110    8.5210 C.ar   77  T0177      -0.0109
      6  C1       -24.8980   56.4690   10.8370 C.ar   77  T0177      -0.0109
      7  C2       -23.8170   55.5210   10.9370 C.ar   77  T0177      -0.0557
      8  C3       -23.1880   55.0650    9.8350 C.ar   77  T0177      -0.0557
      9  C4       -25.2850   56.9150    9.5220 C.ar   77  T0177      -0.0557
     10  C5       -24.6550   56.4600    8.4200 C.ar   77  T0177      -0.0557
     11  C6       -22.9290   55.0460    7.3920 C.3    77  T0177       0.2027
     12  C7       -25.5420   56.9360   11.9660 C.3    77  T0177       0.2027
     13  C8       -21.8610   54.1110    7.4730 C.1    77  T0177       0.0921
     14  C9       -23.2980   55.4770    6.0880 C.1    77  T0177       0.0921
     15 C10       -25.1720   56.5070   13.2690 C.1    77  T0177       0.0921
     16 C11       -26.6100   57.8710   11.8840 C.1    77  T0177       0.0921
     17  H        -23.5160   55.1770   11.9180 H      77  T0177       0.0621
     18  H1       -26.0950   57.6270    9.4320 H      77  T0177       0.0621
     19  H2       -22.3780   54.3530    9.9250 H      77  T0177       0.0621
     20  H3       -24.9570   56.8040    7.4390 H      77  T0177       0.0621
@<TRIPOS>BOND
     1     2    14    3
     2    14    11    1
     3    11    13    1
     4    11     5    1
     5    20    10    1
     6    13     1    3
     7    10     5   ar
     8    10     9   ar
     9     5     8   ar
    10    18     9    1
    11     9     6   ar
    12     8    19    1
    13     8     7   ar
    14     6     7   ar
    15     6    12    1
    16     7    17    1
    17     4    16    3
    18    16    12    1
    19    12    15    1
    20    15     3    3
