@<TRIPOS>MOLECULE
Analysis/pc_mapping/4529a482b1db6a18c5e584c8b0362ff7.pdb
 82 87 0 0 0
SMALL
GASTEIGER

@<TRIPOS>ATOM
      1  C         33.2000  -12.1620    5.0560 C.ar    0  T000        0.1202
      2  C1        33.2900  -12.8870    6.2410 C.ar    0  T000       -0.0182
      3  C2        32.2510  -13.7280    6.6220 C.ar    0  T000       -0.0366
      4  C3        31.1210  -13.8790    5.8250 C.ar    0  T000        0.0390
      5  C4        31.0460  -13.1580    4.6290 C.ar    0  T000       -0.0366
      6  C5        32.0650  -12.3030    4.2550 C.ar    0  T000       -0.0182
      7  C6        31.4550  -16.7370    5.8440 C.ar    0  T000       -0.0394
      8  C7        30.3380  -16.1210    6.4170 C.ar    0  T000        0.0388
      9  C8        29.4860  -16.9000    7.2060 C.ar    0  T000       -0.0394
     10  C9        29.7450  -18.2460    7.4070 C.ar    0  T000       -0.0523
     11 C10        30.8640  -18.8710    6.8470 C.ar    0  T000       -0.0178
     12 C11        31.7110  -18.0790    6.0630 C.ar    0  T000       -0.0523
     13 C12        28.5700  -12.9320    6.8210 C.ar    0  T000       -0.0366
     14 C13        27.2930  -12.4290    6.9840 C.ar    0  T000       -0.0182
     15 C14        26.1790  -13.2300    6.7210 C.ar    0  T000        0.1202
     16 C15        26.3680  -14.5390    6.2840 C.ar    0  T000       -0.0182
     17 C16        27.6570  -15.0290    6.1020 C.ar    0  T000       -0.0366
     18 C17        28.7700  -14.2410    6.3700 C.ar    0  T000        0.0390
     19 C18        30.8280  -20.9230    8.2850 C.ar    0  T000       -0.0523
     20 C19        31.1380  -20.3000    7.0710 C.ar    0  T000       -0.0178
     21 C20        31.7220  -21.0960    6.0780 C.ar    0  T000       -0.0523
     22 C21        31.9900  -22.4380    6.2860 C.ar    0  T000       -0.0394
     23 C22        31.6680  -23.0510    7.5000 C.ar    0  T000        0.0388
     24 C23        31.0780  -22.2670    8.4980 C.ar    0  T000       -0.0394
     25 C24        28.6500  -25.8940    8.6180 C.ar    0  T000       -0.0182
     26 C25        29.6010  -25.0750    8.0410 C.ar    0  T000       -0.0366
     27 C26        30.9610  -25.2470    8.3200 C.ar    0  T000        0.0390
     28 C27        31.3340  -26.2620    9.1970 C.ar    0  T000       -0.0366
     29 C28        30.3820  -27.0770    9.8000 C.ar    0  T000       -0.0182
     30 C29        29.0310  -26.9000    9.5080 C.ar    0  T000        0.1202
     31 C30        33.1630  -24.9810    7.3120 C.ar    0  T000        0.0390
     32 C31        34.3370  -24.2350    7.3300 C.ar    0  T000       -0.0366
     33 C32        35.5480  -24.7920    6.9370 C.ar    0  T000       -0.0182
     34 C33        35.5950  -26.1130    6.4950 C.ar    0  T000        0.1202
     35 C34        34.4180  -26.8640    6.4620 C.ar    0  T000       -0.0182
     36 C35        33.2220  -26.3080    6.8740 C.ar    0  T000       -0.0366
     37  O         28.0200  -27.6470   10.0360 O.3     0  T000       -0.4951
     38  O1        36.7250  -26.7520    6.0790 O.3     0  T000       -0.4951
     39  O2        24.9630  -12.6480    6.9240 O.3     0  T000       -0.4951
     40  O3        34.1540  -11.3040    4.5960 O.3     0  T000       -0.4951
     41 C36        28.3500  -28.6440   10.9850 C.3     0  T000        0.0788
     42 C37        37.7310  -25.9860    5.4420 C.3     0  T000        0.0788
     43 C38        23.9060  -13.4560    7.4080 C.3     0  T000        0.0788
     44 C39        35.2240  -10.9690    5.4600 C.3     0  T000        0.0788
     45  N         31.9300  -24.4140    7.7140 N.pl3   0  T000       -0.2692
     46  N1        30.0780  -14.7560    6.2060 N.pl3   0  T000       -0.2692
     47  H         34.1540  -12.7980    6.8850 H       0  T000        0.0655
     48  H1        32.3240  -14.2810    7.5480 H       0  T000        0.0637
     49  H2        30.1760  -13.2690    3.9940 H       0  T000        0.0637
     50  H3        32.0090  -11.7430    3.3310 H       0  T000        0.0655
     51  H4        32.1180  -16.1580    5.2160 H       0  T000        0.0636
     52  H5        28.6240  -16.4430    7.6720 H       0  T000        0.0636
     53  H6        29.0810  -18.8140    8.0470 H       0  T000        0.0624
     54  H7        32.5680  -18.5320    5.5820 H       0  T000        0.0624
     55  H8        29.4250  -12.3080    7.0380 H       0  T000        0.0637
     56  H9        27.1350  -11.4170    7.3310 H       0  T000        0.0655
     57 H10        25.5260  -15.1820    6.0700 H       0  T000        0.0655
     58 H11        27.7960  -16.0450    5.7550 H       0  T000        0.0637
     59 H12        30.3420  -20.3530    9.0660 H       0  T000        0.0624
     60 H13        32.0110  -20.6460    5.1370 H       0  T000        0.0624
     61 H14        32.4610  -23.0190    5.5040 H       0  T000        0.0636
     62 H15        30.8060  -22.7230    9.4400 H       0  T000        0.0636
     63 H16        27.5980  -25.7630    8.4020 H       0  T000        0.0655
     64 H17        29.2950  -24.2930    7.3580 H       0  T000        0.0637
     65 H18        32.3820  -26.4110    9.4210 H       0  T000        0.0637
     66 H19        30.7090  -27.8500   10.4790 H       0  T000        0.0655
     67 H20        34.3070  -23.2060    7.6610 H       0  T000        0.0637
     68 H21        36.4400  -24.1840    6.9670 H       0  T000        0.0655
     69 H22        34.4660  -27.8900    6.1210 H       0  T000        0.0655
     70 H23        32.3180  -26.9010    6.8530 H       0  T000        0.0637
     71 H24        27.4550  -29.2510   11.1090 H       0  T000        0.0660
     72 H25        29.1690  -29.2780   10.6310 H       0  T000        0.0660
     73 H26        28.6250  -28.2050   11.9490 H       0  T000        0.0660
     74 H27        38.2880  -26.6800    4.8180 H       0  T000        0.0660
     75 H28        37.2990  -25.2010    4.8130 H       0  T000        0.0660
     76 H29        38.4100  -25.5310    6.1710 H       0  T000        0.0660
     77 H30        23.6320  -14.1170    6.5880 H       0  T000        0.0660
     78 H31        24.2240  -14.0580    8.2670 H       0  T000        0.0660
     79 H32        23.0380  -12.8540    7.6930 H       0  T000        0.0660
     80 H33        35.7390  -10.1320    4.9920 H       0  T000        0.0660
     81 H34        34.8610  -10.6650    6.4470 H       0  T000        0.0660
     82 H35        35.9230  -11.8040    5.5760 H       0  T000        0.0660
@<TRIPOS>BOND
     1    50     6    1
     2    49     5    1
     3     6     5   ar
     4     6     1   ar
     5    40     1    1
     6    40    44    1
     7     5     4   ar
     8    75    42    1
     9    74    42    1
    10    80    44    1
    11     1     2   ar
    12    60    21    1
    13    51     7    1
    14    42    38    1
    15    42    76    1
    16    44    82    1
    17    44    81    1
    18    61    22    1
    19    54    12    1
    20    58    17    1
    21     4    46    1
    22     4     3   ar
    23     7    12   ar
    24     7     8   ar
    25    12    11   ar
    26    57    16    1
    27    21    22   ar
    28    21    20   ar
    29    38    34    1
    30    17    16   ar
    31    17    18   ar
    32    69    35    1
    33    46    18    1
    34    46     8    1
    35     2     3   ar
    36     2    47    1
    37    16    15   ar
    38    22    23   ar
    39    18    13   ar
    40     8     9   ar
    41    35    34   ar
    42    35    36   ar
    43    34    33   ar
    44    77    43    1
    45     3    48    1
    46    15    39    1
    47    15    14   ar
    48    13    14   ar
    49    13    55    1
    50    11    20    1
    51    11    10   ar
    52    70    36    1
    53    36    31   ar
    54    39    43    1
    55    33    68    1
    56    33    32   ar
    57    14    56    1
    58    20    19   ar
    59     9    10   ar
    60     9    52    1
    61    31    32   ar
    62    31    45    1
    63    32    67    1
    64    64    26    1
    65    10    53    1
    66    43    79    1
    67    43    78    1
    68    23    45    1
    69    23    24   ar
    70    45    27    1
    71    26    27   ar
    72    26    25   ar
    73    19    24   ar
    74    19    59    1
    75    27    28   ar
    76    63    25    1
    77    24    62    1
    78    25    30   ar
    79    28    65    1
    80    28    29   ar
    81    30    29   ar
    82    30    37    1
    83    29    66    1
    84    37    41    1
    85    72    41    1
    86    41    71    1
    87    41    73    1
