@<TRIPOS>MOLECULE
Analysis/pc_mapping/ac85c387eec36b98aaab7138b62a8b88.pdb
 20 20 0 0 0
SMALL
GASTEIGER

@<TRIPOS>ATOM
      1  C         38.4300   43.7520    8.3230 C.ar   77  T0177       0.0652
      2  C1        38.9510   45.0640    8.6180 C.ar   77  T0177       0.1674
      3  C2        38.6970   45.7070    9.7790 C.ar   77  T0177       0.1674
      4  C3        37.8830   45.1400   10.8230 C.ar   77  T0177       0.0652
      5  C4        37.3630   43.8280   10.5290 C.ar   77  T0177       0.1674
      6  C5        37.6190   43.1840    9.3680 C.ar   77  T0177       0.1674
      7  F         37.0970   41.9780    9.1880 F      77  T0177      -0.2020
      8  F1        36.6040   43.2250   11.4320 F      77  T0177      -0.2020
      9  F2        39.2190   46.9120    9.9600 F      77  T0177      -0.2020
     10  F3        39.7110   45.6670    7.7150 F      77  T0177      -0.2020
     11  C6        38.6900   43.0950    7.1370 C.3    77  T0177       0.2083
     12  C7        39.4890   43.6360    6.0900 C.1    77  T0177       0.0923
     13  C8        38.1880   41.8000    6.8230 C.1    77  T0177       0.0923
     14  C9        37.6230   45.7970   12.0100 C.3    77  T0177       0.2083
     15 C10        38.1240   47.0930   12.3220 C.1    77  T0177       0.0923
     16 C11        36.8220   45.2560   13.0560 C.1    77  T0177       0.0923
     17  N         40.1210   43.9960    5.1950 N.1    77  T0177      -0.1945
     18  N1        37.8260   40.7570    6.4870 N.1    77  T0177      -0.1945
     19  N2        36.1910   44.8970   13.9500 N.1    77  T0177      -0.1945
     20  N3        38.4860   48.1350   12.6580 N.1    77  T0177      -0.1945
@<TRIPOS>BOND
     1    17    12    3
     2    12    11    1
     3    18    13    3
     4    13    11    1
     5    11     1    1
     6    10     2    1
     7     1     2   ar
     8     1     6   ar
     9     2     3   ar
    10     7     6    1
    11     6     5   ar
    12     3     9    1
    13     3     4   ar
    14     5     4   ar
    15     5     8    1
    16     4    14    1
    17    14    15    1
    18    14    16    1
    19    15    20    3
    20    16    19    3
