@<TRIPOS>MOLECULE
Analysis/pc_mapping/69b6a5a2aca38ba2f734a6724ea30826.pdb
 26 27 0 0 0
SMALL
GASTEIGER

@<TRIPOS>ATOM
      1  C         57.6940  -28.2790    9.0050 C.ar   17  T0017       0.0630
      2  C1        56.5070  -28.5500    8.2430 C.ar   17  T0017       0.1676
      3  C2        55.6710  -27.5740    7.8220 C.ar   17  T0017       0.1694
      4  C3        55.9170  -26.1880    8.1070 C.ar   17  T0017       0.0614
      5  C4        57.1050  -25.8730    8.8720 C.ar   17  T0017       0.0614
      6  C5        57.9270  -26.8870    9.2820 C.ar   17  T0017       0.1427
      7  C6        58.5510  -29.2810    9.4380 C.3    17  T0017       0.2082
      8  C7        59.7340  -29.0540   10.1930 C.1    17  T0017       0.0923
      9  C8        58.3400  -30.6650    9.1750 C.1    17  T0017       0.0923
     10  C9        54.4670  -22.7800    7.5460 C.3    17  T0017       0.2082
     11 C10        53.2820  -23.0080    6.7940 C.1    17  T0017       0.0923
     12 C11        54.6780  -21.3980    7.8090 C.1    17  T0017       0.0923
     13  N         60.7080  -28.9660   10.8040 N.1    17  T0017      -0.1945
     14  N1        58.2510  -31.8020    9.0100 N.1    17  T0017      -0.1945
     15  N2        52.3060  -23.0970    6.1860 N.1    17  T0017      -0.1945
     16  N3        54.7650  -20.2600    7.9750 N.1    17  T0017      -0.1945
     17  F         59.0150  -26.6000    9.9830 F      17  T0017      -0.2043
     18  F1        56.2110  -29.8090    7.9390 F      17  T0017      -0.2020
     19  F2        54.5990  -27.9220    7.1240 F      17  T0017      -0.2017
     20 C12        57.3490  -24.4870    9.1560 C.ar   17  T0017       0.1694
     21 C13        55.0930  -25.1740    7.6980 C.ar   17  T0017       0.1427
     22 C14        55.3250  -23.7820    7.9760 C.ar   17  T0017       0.0630
     23 C15        56.5150  -23.5120    8.7350 C.ar   17  T0017       0.1676
     24  F3        56.8100  -22.2520    9.0400 F      17  T0017      -0.2020
     25  F4        54.0040  -25.4620    6.9970 F      17  T0017      -0.2043
     26  F5        58.4230  -24.1390    9.8520 F      17  T0017      -0.2017
@<TRIPOS>BOND
     1    15    11    3
     2    11    10    1
     3    25    21    1
     4    19     3    1
     5    10    12    1
     6    10    22    1
     7    21    22   ar
     8    21     4   ar
     9    12    16    3
    10     3     4   ar
    11     3     2   ar
    12    18     2    1
    13    22    23   ar
    14     4     5   ar
    15     2     1   ar
    16    23    24    1
    17    23    20   ar
    18     5    20   ar
    19     5     6   ar
    20     1     6   ar
    21     1     7    1
    22    14     9    3
    23    20    26    1
    24     9     7    1
    25     6    17    1
    26     7     8    1
    27     8    13    3
