@<TRIPOS>MOLECULE
Analysis/pc_mapping/85c3a3ab062b03030c19959e00caa036.pdb
 94 105 0 0 0
SMALL
GASTEIGER

@<TRIPOS>ATOM
      1  N        -55.1670   35.9080    9.3330 N.ar    0  T010       -0.3087
      2  C        -53.9160   36.2510    9.8340 C.ar    0  T010        0.0549
      3  C1       -55.2970   34.5250    9.3760 C.ar    0  T010        0.0549
      4  C2       -56.1370   36.8140    8.8470 C.ar    0  T010        0.0473
      5  C3       -53.2330   35.0730   10.2070 C.ar    0  T010        0.0079
      6  C4       -53.3300   37.5070    9.9580 C.ar    0  T010       -0.0372
      7  C5       -54.1150   33.9690    9.9150 C.ar    0  T010        0.0079
      8  C6       -56.3760   33.7280    9.0080 C.ar    0  T010       -0.0372
      9  C7       -56.6020   36.7110    7.5390 C.ar    0  T010       -0.0361
     10  C8       -56.6330   37.8220    9.6700 C.ar    0  T010       -0.0361
     11  C9       -51.9440   35.1620   10.7290 C.ar    0  T010       -0.0520
     12 C10       -52.0460   37.5680   10.4800 C.ar    0  T010       -0.0598
     13 C11       -54.0130   32.5890   10.0690 C.ar    0  T010       -0.0520
     14 C12       -56.2500   32.3560    9.1730 C.ar    0  T010       -0.0598
     15 C13       -57.5600   37.5910    7.0650 C.ar    0  T010       -0.0381
     16 C14       -57.5670   38.7250    9.1870 C.ar    0  T010       -0.0381
     17 C15       -51.3590   36.4110   10.8660 C.ar    0  T010       -0.0611
     18 C16       -55.0800   31.7890    9.6930 C.ar    0  T010       -0.0611
     19 C17       -58.0480   38.6150    7.8790 C.ar    0  T010        0.0389
     20  N1       -59.0070   39.5280    7.3890 N.pl3   0  T010       -0.2692
     21 C18       -58.8120   40.9150    7.5510 C.ar    0  T010        0.0389
     22 C19       -60.1670   39.0460    6.7450 C.ar    0  T010        0.0389
     23 C20       -59.8980   41.7630    7.7820 C.ar    0  T010       -0.0381
     24 C21       -57.5300   41.4670    7.4830 C.ar    0  T010       -0.0381
     25 C22       -60.6970   37.7970    7.0730 C.ar    0  T010       -0.0381
     26 C23       -60.8040   39.8130    5.7670 C.ar    0  T010       -0.0381
     27 C24       -59.7030   43.1220    7.9610 C.ar    0  T010       -0.0361
     28 C25       -57.3420   42.8300    7.6280 C.ar    0  T010       -0.0361
     29 C26       -61.8340   37.3260    6.4380 C.ar    0  T010       -0.0361
     30 C27       -61.9410   39.3420    5.1330 C.ar    0  T010       -0.0361
     31 C28       -58.4260   43.6690    7.8770 C.ar    0  T010        0.0473
     32 C29       -62.4670   38.0940    5.4630 C.ar    0  T010        0.0473
     33  N2       -58.2320   45.0580    8.0460 N.ar    0  T010       -0.3087
     34  N3       -63.6260   37.6140    4.8160 N.ar    0  T010       -0.3087
     35 C30       -57.7680   45.6780    9.2010 C.ar    0  T010        0.0549
     36 C31       -58.4610   46.0330    7.0810 C.ar    0  T010        0.0549
     37 C32       -64.7290   38.3810    4.4500 C.ar    0  T010        0.0549
     38 C33       -63.8560   36.2970    4.4300 C.ar    0  T010        0.0549
     39 C34       -57.6980   47.0710    8.9780 C.ar    0  T010        0.0079
     40 C35       -57.4350   45.1170   10.4290 C.ar    0  T010       -0.0372
     41 C36       -58.1410   47.2990    7.6240 C.ar    0  T010        0.0079
     42 C37       -58.8960   45.8900    5.7680 C.ar    0  T010       -0.0372
     43 C38       -65.6790   37.5460    3.8220 C.ar    0  T010        0.0079
     44 C39       -64.9420   39.7470    4.5980 C.ar    0  T010       -0.0372
     45 C40       -65.1240   36.2160    3.8100 C.ar    0  T010        0.0079
     46 C41       -63.0570   35.1730    4.6090 C.ar    0  T010       -0.0372
     47 C42       -57.2680   47.9100   10.0030 C.ar    0  T010       -0.0520
     48 C43       -57.0100   45.9750   11.4340 C.ar    0  T010       -0.0598
     49 C44       -58.2790   48.4370    6.8340 C.ar    0  T010       -0.0520
     50 C45       -59.0230   47.0400    5.0030 C.ar    0  T010       -0.0598
     51 C46       -66.8700   38.0940    3.3510 C.ar    0  T010       -0.0520
     52 C47       -66.1360   40.2690    4.1200 C.ar    0  T010       -0.0598
     53 C48       -65.5840   34.9850    3.3480 C.ar    0  T010       -0.0520
     54 C49       -63.5400   33.9590    4.1400 C.ar    0  T010       -0.0598
     55 C50       -56.9220   47.3560   11.2260 C.ar    0  T010       -0.0611
     56 C51       -58.7220   48.3030    5.5280 C.ar    0  T010       -0.0611
     57 C52       -67.0950   39.4520    3.5060 C.ar    0  T010       -0.0611
     58 C53       -64.7870   33.8620    3.5120 C.ar    0  T010       -0.0611
     59  H        -53.8520   38.4030    9.6540 H       0  T010        0.0638
     60  H1       -57.2860   34.1590    8.6140 H       0  T010        0.0638
     61  H2       -56.2160   35.9320    6.8970 H       0  T010        0.0639
     62  H3       -56.2780   37.9010   10.6880 H       0  T010        0.0639
     63  H4       -51.4070   34.2690   11.0200 H       0  T010        0.0624
     64  H5       -51.5650   38.5330   10.5880 H       0  T010        0.0618
     65  H6       -53.1120   32.1470   10.4800 H       0  T010        0.0624
     66  H7       -57.0730   31.7120    8.8930 H       0  T010        0.0618
     67  H8       -57.9260   37.4970    6.0520 H       0  T010        0.0637
     68  H9       -57.9390   39.5110    9.8290 H       0  T010        0.0637
     69 H10       -50.3590   36.4960   11.2700 H       0  T010        0.0618
     70 H11       -55.0140   30.7150    9.8070 H       0  T010        0.0618
     71 H12       -60.8960   41.3500    7.8350 H       0  T010        0.0637
     72 H13       -56.6810   40.8220    7.3020 H       0  T010        0.0637
     73 H14       -60.2070   37.1900    7.8220 H       0  T010        0.0637
     74 H15       -60.4090   40.7860    5.5120 H       0  T010        0.0637
     75 H16       -60.5470   43.7700    8.1580 H       0  T010        0.0639
     76 H17       -56.3490   43.2520    7.5550 H       0  T010        0.0639
     77 H18       -62.2250   36.3470    6.6790 H       0  T010        0.0639
     78 H19       -62.4430   39.9510    4.3940 H       0  T010        0.0639
     79 H20       -57.5070   44.0530   10.6010 H       0  T010        0.0638
     80 H21       -59.1210   44.9170    5.3530 H       0  T010        0.0638
     81 H22       -64.2040   40.3850    5.0610 H       0  T010        0.0638
     82 H23       -62.0970   35.2370    5.1000 H       0  T010        0.0638
     83 H24       -57.2090   48.9800    9.8490 H       0  T010        0.0624
     84 H25       -56.7420   45.5650   12.3990 H       0  T010        0.0618
     85 H26       -58.0380   49.4150    7.2340 H       0  T010        0.0624
     86 H27       -59.3600   46.9580    3.9780 H       0  T010        0.0618
     87 H28       -67.6100   37.4670    2.8670 H       0  T010        0.0624
     88 H29       -66.3280   41.3280    4.2230 H       0  T010        0.0618
     89 H30       -66.5520   34.9060    2.8710 H       0  T010        0.0624
     90 H31       -62.9380   33.0690    4.2660 H       0  T010        0.0618
     91 H32       -56.5850   47.9960   12.0310 H       0  T010        0.0618
     92 H33       -58.8340   49.1810    4.9030 H       0  T010        0.0618
     93 H34       -68.0160   39.8920    3.1460 H       0  T010        0.0618
     94 H35       -65.1320   32.9000    3.1570 H       0  T010        0.0618
@<TRIPOS>BOND
     1    87    51    1
     2    89    53    1
     3    93    57    1
     4    94    58    1
     5    53    58   ar
     6    53    45   ar
     7    51    57   ar
     8    51    43   ar
     9    57    52   ar
    10    58    54   ar
    11    45    43   ar
    12    45    38   ar
    13    43    37   ar
    14    86    50    1
    15    52    88    1
    16    52    44   ar
    17    54    90    1
    18    54    46   ar
    19    78    30    1
    20    38    46   ar
    21    38    34   ar
    22    37    44   ar
    23    37    34   ar
    24    44    81    1
    25    46    82    1
    26    34    32    1
    27    92    56    1
    28    50    56   ar
    29    50    42   ar
    30    30    32   ar
    31    30    26   ar
    32    80    42    1
    33    32    29   ar
    34    74    26    1
    35    56    49   ar
    36    26    22   ar
    37    42    36   ar
    38    67    15    1
    39    29    77    1
    40    29    25   ar
    41    22    25   ar
    42    22    20    1
    43    49    85    1
    44    49    41   ar
    45    61     9    1
    46    15     9   ar
    47    15    19   ar
    48    25    73    1
    49    36    41   ar
    50    36    33   ar
    51    72    24    1
    52    20    21    1
    53    20    19    1
    54    24    21   ar
    55    24    28   ar
    56     9     4   ar
    57    21    23   ar
    58    76    28    1
    59    41    39   ar
    60    28    31   ar
    61    23    71    1
    62    23    27   ar
    63    31    27   ar
    64    31    33    1
    65    19    16   ar
    66    27    75    1
    67    33    35   ar
    68    60     8    1
    69     4     1    1
    70     4    10   ar
    71    66    14    1
    72    39    35   ar
    73    39    47   ar
    74     8    14   ar
    75     8     3   ar
    76    14    18   ar
    77    16    10   ar
    78    16    68    1
    79    35    40   ar
    80     1     3   ar
    81     1     2   ar
    82     3     7   ar
    83    59     6    1
    84    10    62    1
    85    18    70    1
    86    18    13   ar
    87     2     6   ar
    88     2     5   ar
    89    83    47    1
    90     7    13   ar
    91     7     5   ar
    92     6    12   ar
    93    47    55   ar
    94    13    65    1
    95     5    11   ar
    96    40    79    1
    97    40    48   ar
    98    12    64    1
    99    12    17   ar
   100    11    17   ar
   101    11    63    1
   102    17    69    1
   103    55    48   ar
   104    55    91    1
   105    48    84    1
