@<TRIPOS>MOLECULE
Analysis/pc_mapping/7049b4f04320513007a41f2c80ce9989.pdb
 78 85 0 0 0
SMALL
GASTEIGER

@<TRIPOS>ATOM
      1  N         19.6510   -4.4290    7.5580 N.pl3   0  T000       -0.2686
      2  N1        10.4630   -7.9240    9.0770 N.pl3   0  T000       -0.2686
      3  C         20.5690   -5.2310    6.8270 C.ar    0  T000        0.0464
      4  C1         9.8750   -8.6820    8.0290 C.ar    0  T000        0.0464
      5  C2        18.3540   -4.9150    7.8030 C.ar    0  T000        0.0388
      6  C3        11.7690   -7.4240    8.8880 C.ar    0  T000        0.0388
      7  C4        21.7370   -5.7370    7.4660 C.ar    0  T000        0.0038
      8  C5         8.5200   -8.4510    7.6560 C.ar    0  T000        0.0038
      9  C6        15.7380   -5.9090    8.2260 C.ar    0  T000       -0.0178
     10  C7        14.3770   -6.4260    8.4530 C.ar    0  T000       -0.0178
     11  C8        19.9950   -3.0840    7.8160 C.ar    0  T000        0.0388
     12  C9         9.8490   -7.9040   10.3440 C.ar    0  T000        0.0388
     13 C10        22.6220   -6.5630    6.7090 C.ar    0  T000       -0.0161
     14 C11         7.9520   -9.2520    6.6210 C.ar    0  T000       -0.0161
     15 C12        18.1420   -6.2540    8.1480 C.ar    0  T000       -0.0394
     16 C13        12.0280   -6.5330    7.8440 C.ar    0  T000       -0.0394
     17 C14        17.2400   -4.0830    7.6650 C.ar    0  T000       -0.0394
     18 C15        12.8280   -7.8150    9.7090 C.ar    0  T000       -0.0394
     19 C16        16.8630   -6.7320    8.3610 C.ar    0  T000       -0.0523
     20 C17        13.3070   -6.0530    7.6300 C.ar    0  T000       -0.0523
     21 C18        15.9620   -4.5780    7.8650 C.ar    0  T000       -0.0523
     22 C19        14.1020   -7.3170    9.4960 C.ar    0  T000       -0.0523
     23 C20        20.3320   -5.5030    5.5000 C.ar    0  T000       -0.0394
     24 C21        10.6220   -9.6290    7.3680 C.ar    0  T000       -0.0394
     25 C22        22.0660   -5.4380    8.8090 C.ar    0  T000       -0.0522
     26 C23         7.7220   -7.4470    8.2540 C.ar    0  T000       -0.0522
     27 C24        22.3380   -6.8270    5.3490 C.ar    0  T000       -0.0539
     28 C25         8.7520  -10.2220    5.9720 C.ar    0  T000       -0.0539
     29 C26        21.2240   -6.2950    4.7550 C.ar    0  T000       -0.0594
     30 C27        10.0620  -10.3950    6.3310 C.ar    0  T000       -0.0594
     31 C28        23.7810   -7.0790    7.3380 C.ar    0  T000       -0.0540
     32 C29         6.6030   -9.0370    6.2520 C.ar    0  T000       -0.0540
     33 C30        19.3940   -2.3640    8.8510 C.ar    0  T000       -0.0400
     34 C31        10.1580   -6.8980   11.2670 C.ar    0  T000       -0.0400
     35 C32        20.9410   -2.4480    7.0080 C.ar    0  T000       -0.0400
     36 C33         8.8940   -8.8650   10.6880 C.ar    0  T000       -0.0400
     37 C34        23.2010   -5.9490    9.3820 C.ar    0  T000       -0.0611
     38 C35         6.4210   -7.2600    7.8650 C.ar    0  T000       -0.0611
     39 C36        24.0640   -6.7860    8.6440 C.ar    0  T000       -0.0612
     40 C37         5.8520   -8.0680    6.8600 C.ar    0  T000       -0.0612
     41 C38        19.7470   -1.0410    9.0780 C.ar    0  T000       -0.0600
     42 C39         9.5350   -6.8680   12.5040 C.ar    0  T000       -0.0600
     43 C40        21.2770   -1.1220    7.2330 C.ar    0  T000       -0.0600
     44 C41         8.2640   -8.8150   11.9240 C.ar    0  T000       -0.0600
     45 C42        20.6870   -0.4100    8.2720 C.ar    0  T000       -0.0616
     46 C43         8.5810   -7.8240   12.8440 C.ar    0  T000       -0.0616
     47  H         18.9880   -6.9180    8.2550 H       0  T000        0.0636
     48  H1        11.2150   -6.2150    7.2050 H       0  T000        0.0636
     49  H2        17.3760   -3.0480    7.3850 H       0  T000        0.0636
     50  H3        12.6520   -8.5200   10.5100 H       0  T000        0.0636
     51  H4        16.7340   -7.7660    8.6530 H       0  T000        0.0624
     52  H5        13.4720   -5.3410    6.8310 H       0  T000        0.0624
     53  H6        15.1190   -3.9150    7.7240 H       0  T000        0.0624
     54  H7        14.9100   -7.6600   10.1290 H       0  T000        0.0624
     55  H8        19.4440   -5.0990    5.0320 H       0  T000        0.0636
     56  H9        11.6530   -9.7810    7.6590 H       0  T000        0.0636
     57 H10        21.4120   -4.8000    9.3830 H       0  T000        0.0624
     58 H11         8.1490   -6.8240    9.0260 H       0  T000        0.0624
     59 H12        23.0210   -7.4480    4.7820 H       0  T000        0.0624
     60 H13         8.3120  -10.8190    5.1830 H       0  T000        0.0624
     61 H14        21.0110   -6.4950    3.7140 H       0  T000        0.0618
     62 H15        10.6730  -11.1350    5.8300 H       0  T000        0.0618
     63 H16        24.4450   -7.7120    6.7600 H       0  T000        0.0624
     64 H17         6.1760   -9.6540    5.4700 H       0  T000        0.0624
     65 H18        18.6520   -2.8440    9.4740 H       0  T000        0.0636
     66 H19        10.8850   -6.1420   11.0050 H       0  T000        0.0636
     67 H20        21.4090   -3.0010    6.2040 H       0  T000        0.0636
     68 H21         8.6440   -9.6450    9.9830 H       0  T000        0.0636
     69 H22        23.4400   -5.7080   10.4110 H       0  T000        0.0618
     70 H23         5.8260   -6.4850    8.3300 H       0  T000        0.0618
     71 H24        24.9540   -7.1870    9.1130 H       0  T000        0.0618
     72 H25         4.8210   -7.9140    6.5660 H       0  T000        0.0618
     73 H26        19.2710   -0.4970    9.8850 H       0  T000        0.0618
     74 H27         9.7870   -6.0810   13.2040 H       0  T000        0.0618
     75 H28        22.0140   -0.6450    6.5980 H       0  T000        0.0618
     76 H29         7.5260   -9.5680   12.1710 H       0  T000        0.0618
     77 H30        20.9560    0.6230    8.4500 H       0  T000        0.0618
     78 H31         8.0920   -7.7920   13.8080 H       0  T000        0.0618
@<TRIPOS>BOND
     1    61    29    1
     2    29    27   ar
     3    29    23   ar
     4    59    27    1
     5    55    23    1
     6    60    28    1
     7    27    13   ar
     8    64    32    1
     9    23     3   ar
    10    62    30    1
    11    28    30   ar
    12    28    14   ar
    13    67    35    1
    14    32    14   ar
    15    32    40   ar
    16    30    24   ar
    17    72    40    1
    18    75    43    1
    19    14     8   ar
    20    13    31   ar
    21    13     7   ar
    22    63    31    1
    23     3     7   ar
    24     3     1    1
    25    52    20    1
    26    40    38   ar
    27    35    43   ar
    28    35    11   ar
    29    48    16    1
    30    43    45   ar
    31    31    39   ar
    32    24    56    1
    33    24     4   ar
    34    49    17    1
    35     7    25   ar
    36     1     5    1
    37     1    11    1
    38    20    16   ar
    39    20    10   ar
    40     8     4   ar
    41     8    26   ar
    42    17     5   ar
    43    17    21   ar
    44    53    21    1
    45     5    15   ar
    46    11    33   ar
    47    16     6   ar
    48    38    26   ar
    49    38    70    1
    50    21     9   ar
    51     4     2    1
    52    15    47    1
    53    15    19   ar
    54     9    19   ar
    55     9    10    1
    56    26    58    1
    57    45    77    1
    58    45    41   ar
    59    19    51    1
    60    10    22   ar
    61    39    71    1
    62    39    37   ar
    63    25    37   ar
    64    25    57    1
    65    33    41   ar
    66    33    65    1
    67     6     2    1
    68     6    18   ar
    69     2    12    1
    70    41    73    1
    71    37    69    1
    72    22    18   ar
    73    22    54    1
    74    18    50    1
    75    68    36    1
    76    12    36   ar
    77    12    34   ar
    78    36    44   ar
    79    66    34    1
    80    34    42   ar
    81    44    76    1
    82    44    46   ar
    83    42    46   ar
    84    42    74    1
    85    46    78    1
