@<TRIPOS>MOLECULE
Analysis/pc_mapping/7bcea01794773fc317d8fb5a8ea7c275.pdb
 18 18 0 0 0
SMALL
GASTEIGER

@<TRIPOS>ATOM
      1  N        -52.9240   26.3610    9.3890 N.1     4  T014       -0.1945
      2  N1       -57.1870   25.4730   10.1240 N.1     4  T014       -0.1945
      3  N2       -56.2260   19.3320    6.5760 N.1     4  T014       -0.1945
      4  N3       -58.7220   22.2080    8.8160 N.1     4  T014       -0.1945
      5  N4       -50.7530   23.8670    7.4330 N.1     4  T014       -0.1901
      6  N5       -52.5170   20.1030    5.9360 N.1     4  T014       -0.1901
      7  C        -54.7980   23.5950    8.4460 C.2     4  T014        0.0049
      8  C1       -55.3630   22.3940    7.9660 C.2     4  T014        0.0049
      9  C2       -54.0000   22.6780    7.7290 C.2     4  T014        0.0149
     10  C3       -54.9280   24.7700    9.1090 C.3     4  T014        0.2036
     11  C4       -56.4300   21.5730    7.8290 C.3     4  T014        0.2036
     12  C5       -52.8030   22.3270    7.2010 C.2     4  T014        0.1359
     13  C6       -53.8200   25.6470    9.2630 C.1     4  T014        0.0921
     14  C7       -56.1760   25.1560    9.6690 C.1     4  T014        0.0921
     15  C8       -56.3160   20.3360    7.1370 C.1     4  T014        0.0921
     16  C9       -57.6950   21.9240    8.3750 C.1     4  T014        0.0921
     17 C10       -51.6720   23.1770    7.3300 C.1     4  T014        0.1108
     18 C11       -52.6460   21.0990    6.5030 C.1     4  T014        0.1108
@<TRIPOS>BOND
     1     6    18    3
     2    18    12    1
     3     3    15    3
     4    15    11    1
     5    12    17    1
     6    12     9    2
     7    17     5    3
     8     9     8    1
     9     9     7    1
    10    11     8    1
    11    11    16    1
    12     8     7    2
    13    16     4    3
    14     7    10    1
    15    10    13    1
    16    10    14    1
    17    13     1    3
    18    14     2    3
